####################################################################### 
# 
# This file contains crystal structure data downloaded from the 
# Cambridge Structural Database (CSD) hosted by the Cambridge 
# Crystallographic Data Centre (CCDC).
# 
# Full information about CCDC data access policies and citation 
# guidelines are available at http://www.ccdc.cam.ac.uk/access/V1 
# 
# Audit and citation data items may have been added by the CCDC. 
# Please retain this information to preserve the provenance of 
# this file and to allow appropriate attribution of the data. 
# 
#######################################################################

data_SNNU-233
_audit_block_doi                 10.5517/ccdc.csd.cc2gx7k6
_database_code_depnum_ccdc_archive 'CCDC 2291258'
loop_
_citation_id
_citation_doi
_citation_year
1 10.1021/acs.inorgchem.4c05364 2025
loop_
_audit_author_name
_audit_author_address
'Wanrong He'
;Shaanxi Normal University
China
;
_audit_update_record             
;
2025-01-14 deposited with the CCDC.	2025-02-18 downloaded from the CCDC.
;
_audit_creation_date             2025-01-10
_audit_creation_method           
;
Olex2 1.5
(compiled 2022.04.07 svn.rca3783a0 for OlexSys, GUI svn.r6498)
;
_shelx_SHELXL_version_number     2018/3
_chemical_name_common            ?
_chemical_name_systematic        
;
 ?
;
_chemical_formula_moiety         'C48 H24 Cl2 N12 Ni3'
_chemical_formula_sum            'C48 H24 Cl2 N12 Ni3'
_chemical_formula_weight         1015.82
_chemical_absolute_configuration ?
_chemical_melting_point          ?
loop_
_atom_type_symbol
_atom_type_description
_atom_type_scat_dispersion_real
_atom_type_scat_dispersion_imag
_atom_type_scat_source
C C 0.0033 0.0016 'International Tables Vol C Tables 4.2.6.8 and 6.1.1.4'
H H 0.0000 0.0000 'International Tables Vol C Tables 4.2.6.8 and 6.1.1.4'
Cl Cl 0.1484 0.1585 'International Tables Vol C Tables 4.2.6.8 and 6.1.1.4'
N N 0.0061 0.0033 'International Tables Vol C Tables 4.2.6.8 and 6.1.1.4'
Ni Ni 0.3393 1.1124 'International Tables Vol C Tables 4.2.6.8 and 6.1.1.4'

_shelx_space_group_comment       
;
The symmetry employed for this shelxl refinement is uniquely defined
by the following loop, which should always be used as a source of
symmetry information in preference to the above space-group names.
They are only intended as comments.
;
_space_group_crystal_system      tetragonal
_space_group_IT_number           96
_space_group_name_H-M_alt        'P 43 21 2'
_space_group_name_Hall           'P 4nw 2abw'
loop_
_space_group_symop_operation_xyz
'x, y, z'
'-x, -y, z+1/2'
'-y+1/2, x+1/2, z+3/4'
'y+1/2, -x+1/2, z+1/4'
'-x+1/2, y+1/2, -z+3/4'
'x+1/2, -y+1/2, -z+1/4'
'y, x, -z'
'-y, -x, -z+1/2'

_cell_length_a                   15.7730(4)
_cell_length_b                   15.7730(4)
_cell_length_c                   20.3921(7)
_cell_angle_alpha                90
_cell_angle_beta                 90
_cell_angle_gamma                90
_cell_volume                     5073.3(3)
_cell_formula_units_Z            4
_cell_measurement_reflns_used    4169
_cell_measurement_temperature    293(2)
_cell_measurement_theta_max      20.2610
_cell_measurement_theta_min      2.0560
_shelx_estimated_absorpt_T_max   0.940
_shelx_estimated_absorpt_T_min   0.885
_exptl_absorpt_coefficient_mu    1.251
_exptl_absorpt_correction_T_max  1.00000
_exptl_absorpt_correction_T_min  0.73678
_exptl_absorpt_correction_type   multi-scan
_exptl_absorpt_process_details   
;
CrysAlisPro 1.171.41.99a (Rigaku Oxford Diffraction, 2021)
Empirical absorption correction using spherical harmonics,
implemented in SCALE3 ABSPACK scaling algorithm.
;
_exptl_absorpt_special_details   ?
_exptl_crystal_colour            'bluish black'
_exptl_crystal_colour_modifier   bluish
_exptl_crystal_colour_primary    black
_exptl_crystal_density_diffrn    1.330
_exptl_crystal_density_meas      ?
_exptl_crystal_density_method    ?
_exptl_crystal_description       block
_exptl_crystal_F_000             2056
_exptl_crystal_size_max          0.1
_exptl_crystal_size_mid          0.1
_exptl_crystal_size_min          0.05
_exptl_special_details           
;
 ?
;
_exptl_transmission_factor_max   ?
_exptl_transmission_factor_min   ?
_diffrn_reflns_av_R_equivalents  0.0771
_diffrn_reflns_av_unetI/netI     0.1392
_diffrn_reflns_Laue_measured_fraction_full 0.998
_diffrn_reflns_Laue_measured_fraction_max 0.972
_diffrn_reflns_limit_h_max       14
_diffrn_reflns_limit_h_min       -18
_diffrn_reflns_limit_k_max       22
_diffrn_reflns_limit_k_min       -22
_diffrn_reflns_limit_l_max       22
_diffrn_reflns_limit_l_min       -29
_diffrn_reflns_number            24523
_diffrn_reflns_point_group_measured_fraction_full 0.997
_diffrn_reflns_point_group_measured_fraction_max 0.948
_diffrn_reflns_theta_full        25.242
_diffrn_reflns_theta_max         30.589
_diffrn_reflns_theta_min         1.826
_diffrn_ambient_temperature      293(2)
_diffrn_detector_area_resol_mean 10.0000
_diffrn_measured_fraction_theta_full 0.998
_diffrn_measured_fraction_theta_max 0.972
_diffrn_measurement_details      
;
List of Runs (angles in degrees, time in seconds):

  # Type    Start    End  Width  t~exp~   \w     \q     \k     \f   Frames
#--------------------------------------------------------------------------
  1  \w     -8.00  19.00   0.50   41.86    --   20.00  54.00  90.00   54
  2  \w    -71.00  15.00   0.50   41.86    --   20.00  54.00-120.00  172
  3  \w     26.00 109.00   0.50   41.86    --   20.00  54.00-120.00  166
  4  \w    -67.00  -5.00   0.50   41.86    --   20.00  54.00 -90.00  124
  5  \w     46.00  71.00   0.50   41.86    --   20.00  54.00 -90.00   50
;
_diffrn_measurement_device       'two-circle diffractometer'
_diffrn_measurement_device_type  'XtaLAB Mini II'
_diffrn_measurement_method       '\w scans'
_diffrn_radiation_type           MoK\a
_diffrn_radiation_wavelength     0.71073
_diffrn_source                   ?
_reflns_Friedel_coverage         0.718
_reflns_Friedel_fraction_full    0.995
_reflns_Friedel_fraction_max     0.915
_reflns_number_gt                4293
_reflns_number_total             7400
_reflns_special_details          
;
 Reflections were merged by SHELXL according to the crystal
 class for the calculation of statistics and refinement.
 
 Structure factors included contributions from the .fab file.
 
 _reflns_Friedel_fraction is defined as the number of unique
 Friedel pairs measured divided by the number that would be
 possible theoretically, ignoring centric projections and
 systematic absences.
;
_reflns_threshold_expression     'I > 2\s(I)'
_computing_cell_refinement       'CrysAlisPro 1.171.41.99a (Rigaku OD, 2021)'
_computing_data_collection       'CrysAlisPro 1.171.41.99a (Rigaku OD, 2021)'
_computing_data_reduction        'CrysAlisPro 1.171.41.99a (Rigaku OD, 2021)'
_computing_molecular_graphics    'Olex2 1.5 (Dolomanov et al., 2009)'
_computing_publication_material  'Olex2 1.5 (Dolomanov et al., 2009)'
_computing_structure_refinement  'SHELXL 2018/3 (Sheldrick, 2015)'
_computing_structure_solution    'olex2.solve 1.3-ac4 (Bourhis et al., 2015)'
_refine_diff_density_max         0.732
_refine_diff_density_min         -0.412
_refine_diff_density_rms         0.096
_refine_ls_abs_structure_details 
;
 Flack x determined using 1212 quotients [(I+)-(I-)]/[(I+)+(I-)]
 (Parsons, Flack and Wagner, Acta Cryst. B69 (2013) 249-259).
;
_refine_ls_abs_structure_Flack   0.007(14)
_refine_ls_extinction_coef       .
_refine_ls_extinction_method     none
_refine_ls_goodness_of_fit_ref   0.961
_refine_ls_hydrogen_treatment    mixed
_refine_ls_matrix_type           full
_refine_ls_number_parameters     314
_refine_ls_number_reflns         7400
_refine_ls_number_restraints     2
_refine_ls_R_factor_all          0.1276
_refine_ls_R_factor_gt           0.0719
_refine_ls_restrained_S_all      0.961
_refine_ls_shift/su_max          0.001
_refine_ls_shift/su_mean         0.000
_refine_ls_structure_factor_coef Fsqd
_refine_ls_weighting_details     
'w=1/[\s^2^(Fo^2^)+(0.0759P)^2^] where P=(Fo^2^+2Fc^2^)/3'
_refine_ls_weighting_scheme      calc
_refine_ls_wR_factor_gt          0.1451
_refine_ls_wR_factor_ref         0.1622
_refine_special_details          ?
_olex2_refinement_description    
;
1. Fixed Uiso
 At 1.2 times of:
  All C(H) groups
2. Restrained distances
 C2-H2
 0.78 with sigma of 0.01
 C3-H3
 0.78 with sigma of 0.01
3.a Aromatic/amide H refined with riding coordinates:
 C23(H23), C16(H16), C17(H17), C15(H15), C18(H18), C22(H22), C21(H21)
;
_atom_sites_solution_hydrogens   mixed
_atom_sites_solution_primary     ?
_atom_sites_solution_secondary   ?
loop_
_atom_site_label
_atom_site_type_symbol
_atom_site_fract_x
_atom_site_fract_y
_atom_site_fract_z
_atom_site_U_iso_or_equiv
_atom_site_adp_type
_atom_site_occupancy
_atom_site_site_symmetry_order
_atom_site_calc_flag
_atom_site_refinement_flags_posn
_atom_site_refinement_flags_adp
_atom_site_refinement_flags_occupancy
_atom_site_disorder_assembly
_atom_site_disorder_group
Ni1 Ni 0.14280(6) 0.63268(6) 0.62020(4) 0.0310(2) Uani 1 1 d . . . . .
Ni2 Ni 0.51998(6) 0.48002(6) 0.750000 0.0314(3) Uani 1 2 d S T P . .
Cl1 Cl 0.55993(16) 0.37704(17) 0.67172(13) 0.0680(7) Uani 1 1 d . . . . .
N1 N 0.1177(4) 0.5651(3) 0.6982(2) 0.0246(13) Uani 1 1 d . . . . .
N5 N 0.4156(3) 0.5227(4) 0.6831(2) 0.0259(13) Uani 1 1 d . . . . .
N6 N 0.2596(4) 0.5943(4) 0.6363(3) 0.0289(13) Uani 1 1 d . . . . .
N2 N 0.1107(4) 0.4434(4) 0.8026(2) 0.0277(14) Uani 1 1 d . . . . .
N3 N 0.2509(4) 0.3659(4) 0.8414(2) 0.0262(13) Uani 1 1 d . . . . .
C7 C 0.1824(4) 0.4646(4) 0.7730(3) 0.0249(15) Uani 1 1 d . . . . .
N4 N 0.4099(4) 0.4063(4) 0.7816(2) 0.0294(13) Uani 1 1 d . . . . .
C9 C 0.2632(4) 0.5409(4) 0.6879(3) 0.0265(16) Uani 1 1 d . . . . .
C8 C 0.1859(4) 0.5235(5) 0.7184(3) 0.0269(15) Uani 1 1 d . . . . .
C24 C 0.4124(4) 0.5724(4) 0.6252(3) 0.0288(15) Uani 1 1 d . . . . .
C19 C 0.3341(4) 0.6083(5) 0.6030(3) 0.0301(17) Uani 1 1 d . . . . .
C5 C 0.0372(4) 0.4860(4) 0.7831(3) 0.0279(16) Uani 1 1 d . . . . .
C4 C 0.0416(4) 0.5464(4) 0.7298(3) 0.0237(14) Uani 1 1 d . . . . .
C11 C 0.3382(4) 0.4439(4) 0.7641(3) 0.0227(14) Uani 1 1 d . . . . .
C12 C 0.2587(5) 0.4237(4) 0.7923(3) 0.0250(15) Uani 1 1 d . . . . .
C10 C 0.3414(5) 0.5050(4) 0.7096(3) 0.0282(16) Uani 1 1 d . . . . .
C23 C 0.4825(5) 0.5858(5) 0.5865(3) 0.0394(19) Uani 1 1 d . . . . .
H23 H 0.533179 0.560290 0.598971 0.047 Uiso 1 1 calc R U . . .
C3 C -0.0330(5) 0.5917(5) 0.7146(4) 0.0350(18) Uani 1 1 d D . . . .
C13 C 0.3215(5) 0.3227(4) 0.8577(3) 0.0282(16) Uani 1 1 d . . . . .
C16 C 0.4648(5) 0.2272(5) 0.8890(3) 0.040(2) Uani 1 1 d . . . . .
H16 H 0.511974 0.194611 0.899523 0.048 Uiso 1 1 calc R U . . .
C6 C -0.0397(5) 0.4720(6) 0.8127(4) 0.0378(19) Uani 1 1 d . . . . .
C17 C 0.3918(6) 0.2112(5) 0.9192(4) 0.049(2) Uani 1 1 d . . . . .
H17 H 0.389374 0.168130 0.950235 0.059 Uiso 1 1 calc R U . . .
C2 C -0.1077(6) 0.5779(6) 0.7471(4) 0.046(2) Uani 1 1 d D . . . .
C20 C 0.3345(6) 0.6578(6) 0.5465(4) 0.043(2) Uani 1 1 d . . . . .
C14 C 0.4030(5) 0.3399(4) 0.8273(3) 0.0312(17) Uani 1 1 d . . . . .
C15 C 0.4729(5) 0.2892(4) 0.8432(3) 0.0329(17) Uani 1 1 d . . . . .
H15 H 0.524730 0.297950 0.822541 0.040 Uiso 1 1 calc R U . . .
C18 C 0.3183(6) 0.2583(5) 0.9052(4) 0.045(2) Uani 1 1 d . . . . .
H18 H 0.267957 0.246792 0.927172 0.055 Uiso 1 1 calc R U . . .
C22 C 0.4825(5) 0.6336(6) 0.5316(4) 0.050(2) Uani 1 1 d . . . . .
H22 H 0.531825 0.640949 0.507256 0.060 Uiso 1 1 calc R U . . .
C1 C -0.1109(5) 0.5145(7) 0.7964(4) 0.045(2) Uani 1 1 d . . . . .
C21 C 0.4061(5) 0.6721(5) 0.5121(4) 0.048(2) Uani 1 1 d . . . . .
H21 H 0.404988 0.707340 0.475552 0.057 Uiso 1 1 calc R U . . .
H1 H -0.156(7) 0.516(7) 0.813(5) 0.09(4) Uiso 1 1 d . . . . .
H6 H -0.047(5) 0.432(5) 0.838(4) 0.04(2) Uiso 1 1 d . . . . .
H20 H 0.284(5) 0.684(5) 0.537(3) 0.05(3) Uiso 1 1 d . . . . .
H3 H -0.026(6) 0.613(5) 0.681(2) 0.06(3) Uiso 1 1 d D . . . .
H2 H -0.146(3) 0.605(4) 0.735(3) 0.03(2) Uiso 1 1 d D . . . .

loop_
_atom_site_aniso_label
_atom_site_aniso_U_11
_atom_site_aniso_U_22
_atom_site_aniso_U_33
_atom_site_aniso_U_23
_atom_site_aniso_U_13
_atom_site_aniso_U_12
Ni1 0.0287(5) 0.0346(6) 0.0298(4) 0.0111(4) -0.0081(4) 0.0011(5)
Ni2 0.0293(5) 0.0293(5) 0.0357(7) 0.0029(4) 0.0029(4) 0.0020(6)
Cl1 0.0592(15) 0.0613(17) 0.0835(16) -0.0237(13) 0.0087(13) 0.0000(13)
N1 0.033(3) 0.025(3) 0.016(2) 0.006(2) -0.004(2) -0.002(3)
N5 0.026(3) 0.023(3) 0.029(3) 0.012(2) 0.002(2) -0.003(3)
N6 0.030(3) 0.029(3) 0.027(3) 0.008(2) 0.003(2) 0.003(3)
N2 0.024(3) 0.037(4) 0.022(3) 0.005(2) 0.002(2) -0.007(3)
N3 0.031(3) 0.023(3) 0.025(3) 0.011(2) 0.001(2) -0.006(3)
C7 0.036(4) 0.024(4) 0.016(3) 0.002(3) -0.004(3) 0.004(3)
N4 0.031(3) 0.025(3) 0.032(3) 0.005(2) 0.003(3) 0.006(3)
C9 0.027(4) 0.032(4) 0.021(3) 0.010(3) -0.014(3) 0.004(3)
C8 0.024(4) 0.026(4) 0.030(3) 0.008(3) -0.008(3) -0.002(3)
C24 0.030(4) 0.033(4) 0.023(3) 0.003(3) 0.000(3) -0.008(3)
C19 0.029(4) 0.034(4) 0.027(3) 0.007(3) 0.001(3) -0.007(3)
C5 0.032(4) 0.023(4) 0.029(3) 0.000(3) -0.011(3) -0.001(3)
C4 0.021(4) 0.027(4) 0.024(3) -0.005(3) -0.001(3) 0.000(3)
C11 0.024(4) 0.018(3) 0.026(3) 0.005(3) 0.003(3) 0.002(3)
C12 0.036(4) 0.019(3) 0.020(3) 0.002(3) -0.004(3) -0.004(3)
C10 0.037(4) 0.024(4) 0.024(3) 0.010(3) 0.003(3) 0.003(3)
C23 0.025(4) 0.059(6) 0.034(4) 0.006(4) 0.008(3) 0.010(4)
C3 0.027(4) 0.044(5) 0.034(4) 0.007(4) -0.008(3) -0.002(4)
C13 0.034(4) 0.026(4) 0.025(3) 0.006(3) 0.000(3) 0.005(3)
C16 0.050(5) 0.026(4) 0.044(5) 0.005(3) -0.025(4) 0.014(4)
C6 0.019(4) 0.056(6) 0.038(4) 0.013(4) 0.004(3) 0.000(4)
C17 0.067(7) 0.040(5) 0.039(4) 0.025(4) -0.027(4) 0.003(5)
C2 0.035(5) 0.053(6) 0.050(5) 0.005(4) -0.008(4) 0.007(4)
C20 0.039(5) 0.051(6) 0.038(4) 0.019(4) 0.001(4) 0.005(4)
C14 0.049(5) 0.021(4) 0.024(3) 0.005(3) -0.004(3) 0.012(3)
C15 0.031(4) 0.029(4) 0.039(4) 0.009(3) -0.007(3) 0.000(3)
C18 0.048(5) 0.042(5) 0.046(5) 0.019(4) -0.008(4) -0.007(4)
C22 0.041(5) 0.068(6) 0.039(4) 0.014(4) 0.012(4) 0.004(5)
C1 0.022(4) 0.066(6) 0.048(5) -0.013(4) 0.011(4) 0.000(4)
C21 0.048(5) 0.059(6) 0.037(4) 0.025(4) 0.016(4) 0.004(4)

_geom_special_details            
;
 All esds (except the esd in the dihedral angle between two l.s. planes)
 are estimated using the full covariance matrix.  The cell esds are taken
 into account individually in the estimation of esds in distances, angles
 and torsion angles; correlations between esds in cell parameters are only
 used when they are defined by crystal symmetry.  An approximate (isotropic)
 treatment of cell esds is used for estimating esds involving l.s. planes.
;
loop_
_geom_bond_atom_site_label_1
_geom_bond_atom_site_label_2
_geom_bond_distance
_geom_bond_site_symmetry_2
_geom_bond_publ_flag
Ni1 N1 1.955(5) . ?
Ni1 N6 1.966(6) . ?
Ni1 N2 1.968(6) 3_554 ?
Ni1 N3 1.960(6) 3_554 ?
Ni2 Cl1 2.363(2) 8_666 ?
Ni2 Cl1 2.363(2) . ?
Ni2 N5 2.242(5) 8_666 ?
Ni2 N5 2.242(5) . ?
Ni2 N4 2.186(6) 8_666 ?
Ni2 N4 2.186(6) . ?
N1 C8 1.326(8) . ?
N1 C4 1.393(8) . ?
N5 C24 1.419(8) . ?
N5 C10 1.319(8) . ?
N6 C9 1.349(8) . ?
N6 C19 1.376(8) . ?
N2 C7 1.325(8) . ?
N2 C5 1.399(8) . ?
N3 C12 1.359(8) . ?
N3 C13 1.347(9) . ?
C7 C8 1.451(9) . ?
C7 C12 1.421(9) . ?
N4 C11 1.326(8) . ?
N4 C14 1.406(8) . ?
C9 C8 1.396(9) . ?
C9 C10 1.426(9) . ?
C24 C19 1.430(9) . ?
C24 C23 1.375(9) . ?
C19 C20 1.392(10) . ?
C5 C4 1.446(9) . ?
C5 C6 1.373(10) . ?
C4 C3 1.411(10) . ?
C11 C12 1.416(9) . ?
C11 C10 1.472(8) . ?
C23 H23 0.9300 . ?
C23 C22 1.350(10) . ?
C3 C2 1.368(11) . ?
C3 H3 0.779(13) . ?
C13 C14 1.453(10) . ?
C13 C18 1.404(9) . ?
C16 H16 0.9300 . ?
C16 C17 1.329(11) . ?
C16 C15 1.357(9) . ?
C6 C1 1.349(11) . ?
C6 H6 0.82(7) . ?
C17 H17 0.9300 . ?
C17 C18 1.406(11) . ?
C2 C1 1.419(13) . ?
C2 H2 0.778(13) . ?
C20 C21 1.349(10) . ?
C20 H20 0.92(8) . ?
C14 C15 1.401(9) . ?
C15 H15 0.9300 . ?
C18 H18 0.9300 . ?
C22 H22 0.9300 . ?
C22 C21 1.406(11) . ?
C1 H1 0.79(10) . ?
C21 H21 0.9300 . ?

loop_
_geom_angle_atom_site_label_1
_geom_angle_atom_site_label_2
_geom_angle_atom_site_label_3
_geom_angle
_geom_angle_site_symmetry_1
_geom_angle_site_symmetry_3
_geom_angle_publ_flag
N1 Ni1 N6 83.4(2) . . ?
N1 Ni1 N2 109.5(2) . 3_554 ?
N1 Ni1 N3 138.5(2) . 3_554 ?
N6 Ni1 N2 135.3(2) . 3_554 ?
N3 Ni1 N6 114.1(2) 3_554 . ?
N3 Ni1 N2 84.8(2) 3_554 3_554 ?
Cl1 Ni2 Cl1 95.15(14) 8_666 . ?
N5 Ni2 Cl1 174.95(16) 8_666 . ?
N5 Ni2 Cl1 89.47(16) . . ?
N5 Ni2 Cl1 174.95(16) . 8_666 ?
N5 Ni2 Cl1 89.47(16) 8_666 8_666 ?
N5 Ni2 N5 86.0(3) . 8_666 ?
N4 Ni2 Cl1 92.60(16) . . ?
N4 Ni2 Cl1 101.82(16) 8_666 . ?
N4 Ni2 Cl1 92.60(16) 8_666 8_666 ?
N4 Ni2 Cl1 101.83(16) . 8_666 ?
N4 Ni2 N5 88.4(2) . 8_666 ?
N4 Ni2 N5 75.9(2) 8_666 8_666 ?
N4 Ni2 N5 75.9(2) . . ?
N4 Ni2 N5 88.4(2) 8_666 . ?
N4 Ni2 N4 158.6(3) 8_666 . ?
C8 N1 Ni1 111.0(4) . . ?
C8 N1 C4 116.8(5) . . ?
C4 N1 Ni1 131.7(4) . . ?
C24 N5 Ni2 134.3(4) . . ?
C10 N5 Ni2 109.8(4) . . ?
C10 N5 C24 115.2(6) . . ?
C9 N6 Ni1 111.3(4) . . ?
C9 N6 C19 116.6(6) . . ?
C19 N6 Ni1 132.0(4) . . ?
C7 N2 Ni1 110.1(4) . 4_455 ?
C7 N2 C5 117.2(5) . . ?
C5 N2 Ni1 132.6(4) . 4_455 ?
C12 N3 Ni1 110.7(5) . 4_455 ?
C13 N3 Ni1 132.6(4) . 4_455 ?
C13 N3 C12 116.6(6) . . ?
N2 C7 C8 122.9(6) . . ?
N2 C7 C12 118.8(6) . . ?
C12 C7 C8 118.2(6) . . ?
C11 N4 Ni2 111.1(4) . . ?
C11 N4 C14 116.4(6) . . ?
C14 N4 Ni2 130.8(5) . . ?
N6 C9 C8 115.6(6) . . ?
N6 C9 C10 121.8(6) . . ?
C8 C9 C10 122.6(6) . . ?
N1 C8 C7 121.7(6) . . ?
N1 C8 C9 118.2(6) . . ?
C9 C8 C7 120.0(6) . . ?
N5 C24 C19 120.8(6) . . ?
C23 C24 N5 122.2(6) . . ?
C23 C24 C19 116.9(6) . . ?
N6 C19 C24 121.3(6) . . ?
N6 C19 C20 120.1(7) . . ?
C20 C19 C24 118.6(7) . . ?
N2 C5 C4 119.3(6) . . ?
C6 C5 N2 122.1(6) . . ?
C6 C5 C4 118.6(6) . . ?
N1 C4 C5 121.9(6) . . ?
N1 C4 C3 120.6(6) . . ?
C3 C4 C5 117.2(6) . . ?
N4 C11 C12 123.1(6) . . ?
N4 C11 C10 117.8(6) . . ?
C12 C11 C10 118.9(6) . . ?
N3 C12 C7 115.7(6) . . ?
N3 C12 C11 122.0(6) . . ?
C11 C12 C7 122.3(6) . . ?
N5 C10 C9 123.7(6) . . ?
N5 C10 C11 118.6(6) . . ?
C9 C10 C11 117.7(6) . . ?
C24 C23 H23 117.9 . . ?
C22 C23 C24 124.1(8) . . ?
C22 C23 H23 117.9 . . ?
C4 C3 H3 107(7) . . ?
C2 C3 C4 122.1(7) . . ?
C2 C3 H3 129(7) . . ?
N3 C13 C14 122.0(6) . . ?
N3 C13 C18 120.5(7) . . ?
C18 C13 C14 117.5(7) . . ?
C17 C16 H16 118.8 . . ?
C17 C16 C15 122.5(7) . . ?
C15 C16 H16 118.8 . . ?
C5 C6 H6 121(5) . . ?
C1 C6 C5 123.2(8) . . ?
C1 C6 H6 115(5) . . ?
C16 C17 H17 119.3 . . ?
C16 C17 C18 121.3(7) . . ?
C18 C17 H17 119.3 . . ?
C3 C2 C1 119.1(8) . . ?
C3 C2 H2 116(5) . . ?
C1 C2 H2 125(6) . . ?
C19 C20 H20 115(5) . . ?
C21 C20 C19 121.9(8) . . ?
C21 C20 H20 123(5) . . ?
N4 C14 C13 119.4(6) . . ?
C15 C14 N4 121.2(7) . . ?
C15 C14 C13 119.4(6) . . ?
C16 C15 C14 119.7(7) . . ?
C16 C15 H15 120.1 . . ?
C14 C15 H15 120.1 . . ?
C13 C18 C17 119.5(8) . . ?
C13 C18 H18 120.2 . . ?
C17 C18 H18 120.2 . . ?
C23 C22 H22 120.8 . . ?
C23 C22 C21 118.4(8) . . ?
C21 C22 H22 120.8 . . ?
C6 C1 C2 119.6(8) . . ?
C6 C1 H1 131(8) . . ?
C2 C1 H1 109(8) . . ?
C20 C21 C22 119.9(7) . . ?
C20 C21 H21 120.1 . . ?
C22 C21 H21 120.1 . . ?

loop_
_geom_torsion_atom_site_label_1
_geom_torsion_atom_site_label_2
_geom_torsion_atom_site_label_3
_geom_torsion_atom_site_label_4
_geom_torsion
_geom_torsion_site_symmetry_1
_geom_torsion_site_symmetry_2
_geom_torsion_site_symmetry_3
_geom_torsion_site_symmetry_4
_geom_torsion_publ_flag
Ni1 N1 C8 C7 -176.0(5) . . . . ?
Ni1 N1 C8 C9 7.3(8) . . . . ?
Ni1 N1 C4 C5 172.5(5) . . . . ?
Ni1 N1 C4 C3 -13.2(9) . . . . ?
Ni1 N6 C9 C8 0.5(7) . . . . ?
Ni1 N6 C9 C10 -179.5(5) . . . . ?
Ni1 N6 C19 C24 -179.9(5) . . . . ?
Ni1 N6 C19 C20 -0.2(11) . . . . ?
Ni1 N2 C7 C8 176.5(5) 4_455 . . . ?
Ni1 N2 C7 C12 1.1(7) 4_455 . . . ?
Ni1 N2 C5 C4 -179.1(4) 4_455 . . . ?
Ni1 N2 C5 C6 0.5(11) 4_455 . . . ?
Ni1 N3 C12 C7 0.3(7) 4_455 . . . ?
Ni1 N3 C12 C11 178.0(5) 4_455 . . . ?
Ni1 N3 C13 C14 178.1(5) 4_455 . . . ?
Ni1 N3 C13 C18 -1.5(10) 4_455 . . . ?
Ni2 N5 C24 C19 -162.6(5) . . . . ?
Ni2 N5 C24 C23 20.0(11) . . . . ?
Ni2 N5 C10 C9 164.5(6) . . . . ?
Ni2 N5 C10 C11 -16.3(7) . . . . ?
Ni2 N4 C11 C12 -162.7(5) . . . . ?
Ni2 N4 C11 C10 21.9(7) . . . . ?
Ni2 N4 C14 C13 156.9(5) . . . . ?
Ni2 N4 C14 C15 -24.1(9) . . . . ?
N1 C4 C3 C2 -176.6(7) . . . . ?
N5 C24 C19 N6 -1.3(10) . . . . ?
N5 C24 C19 C20 178.9(7) . . . . ?
N5 C24 C23 C22 -179.0(7) . . . . ?
N6 C9 C8 N1 -5.4(9) . . . . ?
N6 C9 C8 C7 177.9(6) . . . . ?
N6 C9 C10 N5 2.4(11) . . . . ?
N6 C9 C10 C11 -176.8(6) . . . . ?
N6 C19 C20 C21 -179.2(8) . . . . ?
N2 C7 C8 N1 5.6(10) . . . . ?
N2 C7 C8 C9 -177.8(6) . . . . ?
N2 C7 C12 N3 -1.0(9) . . . . ?
N2 C7 C12 C11 -178.7(6) . . . . ?
N2 C5 C4 N1 -1.6(9) . . . . ?
N2 C5 C4 C3 -176.1(6) . . . . ?
N2 C5 C6 C1 177.5(7) . . . . ?
N3 C13 C14 N4 3.1(10) . . . . ?
N3 C13 C14 C15 -175.8(6) . . . . ?
N3 C13 C18 C17 176.9(7) . . . . ?
C7 N2 C5 C4 3.7(9) . . . . ?
C7 N2 C5 C6 -176.7(7) . . . . ?
N4 C11 C12 N3 2.5(10) . . . . ?
N4 C11 C12 C7 180.0(6) . . . . ?
N4 C11 C10 N5 -3.4(9) . . . . ?
N4 C11 C10 C9 175.7(6) . . . . ?
N4 C14 C15 C16 178.1(6) . . . . ?
C9 N6 C19 C24 -4.2(10) . . . . ?
C9 N6 C19 C20 175.6(7) . . . . ?
C8 N1 C4 C5 1.3(9) . . . . ?
C8 N1 C4 C3 175.6(6) . . . . ?
C8 C7 C12 N3 -176.6(6) . . . . ?
C8 C7 C12 C11 5.7(9) . . . . ?
C8 C9 C10 N5 -177.7(7) . . . . ?
C8 C9 C10 C11 3.2(10) . . . . ?
C24 N5 C10 C9 -7.7(10) . . . . ?
C24 N5 C10 C11 171.5(6) . . . . ?
C24 C19 C20 C21 0.6(13) . . . . ?
C24 C23 C22 C21 -0.4(13) . . . . ?
C19 N6 C9 C8 -176.1(6) . . . . ?
C19 N6 C9 C10 3.9(10) . . . . ?
C19 C24 C23 C22 3.5(12) . . . . ?
C19 C20 C21 C22 2.6(14) . . . . ?
C5 N2 C7 C8 -5.6(9) . . . . ?
C5 N2 C7 C12 179.0(6) . . . . ?
C5 C4 C3 C2 -2.1(11) . . . . ?
C5 C6 C1 C2 -0.9(13) . . . . ?
C4 N1 C8 C7 -3.1(9) . . . . ?
C4 N1 C8 C9 -179.8(6) . . . . ?
C4 C5 C6 C1 -2.9(12) . . . . ?
C4 C3 C2 C1 -1.6(13) . . . . ?
C11 N4 C14 C13 -6.7(9) . . . . ?
C11 N4 C14 C15 172.2(6) . . . . ?
C12 N3 C13 C14 3.3(9) . . . . ?
C12 N3 C13 C18 -176.2(6) . . . . ?
C12 C7 C8 N1 -178.9(6) . . . . ?
C12 C7 C8 C9 -2.4(10) . . . . ?
C12 C11 C10 N5 -179.1(6) . . . . ?
C12 C11 C10 C9 0.1(9) . . . . ?
C10 N5 C24 C19 7.1(9) . . . . ?
C10 N5 C24 C23 -170.3(7) . . . . ?
C10 C9 C8 N1 174.6(6) . . . . ?
C10 C9 C8 C7 -2.1(10) . . . . ?
C10 C11 C12 N3 177.9(6) . . . . ?
C10 C11 C12 C7 -4.6(9) . . . . ?
C23 C24 C19 N6 176.2(7) . . . . ?
C23 C24 C19 C20 -3.5(11) . . . . ?
C23 C22 C21 C20 -2.8(13) . . . . ?
C3 C2 C1 C6 3.2(13) . . . . ?
C13 N3 C12 C7 176.2(6) . . . . ?
C13 N3 C12 C11 -6.2(9) . . . . ?
C13 C14 C15 C16 -3.0(10) . . . . ?
C16 C17 C18 C13 0.8(13) . . . . ?
C6 C5 C4 N1 178.8(7) . . . . ?
C6 C5 C4 C3 4.3(10) . . . . ?
C17 C16 C15 C14 1.0(11) . . . . ?
C14 N4 C11 C12 4.1(9) . . . . ?
C14 N4 C11 C10 -171.3(6) . . . . ?
C14 C13 C18 C17 -2.7(11) . . . . ?
C15 C16 C17 C18 0.1(13) . . . . ?
C18 C13 C14 N4 -177.3(6) . . . . ?
C18 C13 C14 C15 3.8(10) . . . . ?

_smtbx_masks_special_details     ?
loop_
_smtbx_masks_void_nr
_smtbx_masks_void_average_x
_smtbx_masks_void_average_y
_smtbx_masks_void_average_z
_smtbx_masks_void_volume
_smtbx_masks_void_count_electrons
_smtbx_masks_void_content
1 -0.553 0.599 0.453 1543.1 281.4 ?

_shelx_fab_file                  
;
-22 -2 -6 -0.7294 4.0575
-22 -2 -2 -4.9979 -3.4544
-22 -2 -1 0.7335 0.4935
-22 -1 -3 3.2154 -1.2100
-22 -1 -2 -2.2352 -3.6394
-22 -1 -1 -0.2159 -2.5314
-21 -7 -1 1.6342 10.7595
-21 -6 -5 5.7178 7.6579
-21 -6 -4 1.6040 2.8283
-21 -6 -3 2.2213 -2.4213
-21 -6 -2 2.3904 -4.9616
-21 -6 -1 0.6730 4.2813
-21 -5 -7 -9.6778 -5.3754
-21 -5 -6 2.6662 -4.4432
-21 -5 -5 2.2806 -2.5627
-21 -5 -4 5.2845 -3.6932
-21 -5 -3 1.1807 0.7993
-21 -5 -2 -4.5113 -6.4128
-21 -5 -1 -4.8470 -6.3012
-21 -4 -8 6.0928 7.0401
-21 -4 -7 -2.2689 3.4472
-21 -4 -6 -9.5823 3.8495
-21 -4 -5 1.4523 -2.4019
-21 -4 -4 -1.5046 -5.3874
-21 -4 -3 3.8156 2.2026
-21 -4 -2 2.0480 8.0978
-21 -4 -1 0.0802 -4.8354
-21 -3 -9 5.1141 -4.4342
-21 -3 -8 1.1273 -6.4276
-21 -3 -7 8.1911 -1.7459
-21 -3 -6 -4.4483 4.4199
-21 -3 -5 -2.1420 3.9289
-21 -3 -4 -3.7437 2.9049
-21 -3 -3 -7.6813 -0.6048
-21 -3 -2 9.5485 8.2738
-21 -3 -1 6.4703 5.3280
-21 -2 -10 -5.5041 -0.0108
-21 -2 -9 -5.0748 4.3462
-21 -2 -8 -0.3134 -0.0197
-21 -2 -7 -3.3629 0.5482
-21 -2 -6 3.8604 -6.3891
-21 -2 -5 4.3609 3.0281
-21 -2 -4 2.3396 -3.3894
-21 -2 -3 -1.2006 0.7094
-21 -2 -2 1.0030 1.1243
-21 -2 -1 4.8623 -4.4017
-21 -1 -10 2.0437 -1.6540
-21 -1 -9 4.1672 -3.5629
-21 -1 -8 2.7896 4.7709
-21 -1 -7 -5.2111 -5.1945
-21 -1 -6 -4.6117 -1.9769
-21 -1 -5 -10.8899 5.1576
-21 -1 -4 -0.2783 -4.2289
-21 -1 -3 -3.7576 -6.1697
-21 -1 -2 -0.0399 1.4151
-21 -1 -1 0.4723 2.8380
-20 -9 -6 -5.6835 1.8194
-20 -9 -5 0.7390 1.3140
-20 -9 -4 1.8209 -6.4856
-20 -9 -3 -2.2090 -2.5391
-20 -9 -2 6.8527 3.4606
-20 -9 -1 6.1258 7.3266
-20 -8 -8 5.0534 -0.7320
-20 -8 -7 4.7754 4.8765
-20 -8 -6 6.3126 -0.0906
-20 -8 -5 -6.7551 1.6555
-20 -8 -4 1.3859 -0.3457
-20 -8 -3 -6.8957 -6.9906
-20 -8 -2 -0.6330 -7.0723
-20 -8 -1 8.6384 6.2091
-20 -7 -9 2.5529 -6.0059
-20 -7 -8 2.6790 2.3128
-20 -7 -7 -3.0003 -6.6833
-20 -7 -6 11.3643 3.3437
-20 -7 -5 2.9022 0.4157
-20 -7 -4 -8.5233 8.7341
-20 -7 -3 5.7809 4.5463
-20 -7 -2 -0.8388 2.3926
-20 -7 -1 -2.1273 -13.0496
-20 -6 -10 -0.7511 -2.4870
-20 -6 -9 -1.6380 0.1343
-20 -6 -8 -5.3656 -4.7256
-20 -6 -7 -3.3063 -2.9706
-20 -6 -6 -1.8361 2.3359
-20 -6 -5 7.2514 0.4773
-20 -6 -4 0.9800 -9.9342
-20 -6 -3 -2.1512 4.8120
-20 -6 -2 1.1258 4.4271
-20 -6 -1 -3.2863 0.5111
-20 -5 -11 -4.3477 0.5514
-20 -5 -10 5.1247 0.7181
-20 -5 -9 -0.6728 5.1039
-20 -5 -8 -3.3800 1.6374
-20 -5 -7 2.7233 1.2720
-20 -5 -6 0.0787 4.1423
-20 -5 -5 -2.1036 0.3095
-20 -5 -4 5.8199 0.0165
-20 -5 -3 -12.4485 -0.2409
-20 -5 -2 -3.9411 -0.0618
-20 -5 -1 0.3366 6.6806
-20 -4 -12 -3.2045 2.0470
-20 -4 -11 -0.4357 0.8679
-20 -4 -10 4.2659 -4.2423
-20 -4 -9 2.1256 -6.6092
-20 -4 -8 0.8809 -4.0592
-20 -4 -7 -3.9534 -0.8526
-20 -4 -6 7.5588 -4.9764
-20 -4 -5 3.1682 -0.2657
-20 -4 -4 5.7189 -0.9010
-20 -4 -3 8.3115 2.5749
-20 -4 -2 -4.5226 0.8664
-20 -4 -1 -1.4540 -7.4812
-20 -3 -12 1.0837 3.2936
-20 -3 -11 -4.7774 1.7538
-20 -3 -10 0.4894 3.3689
-20 -3 -9 -4.8091 -4.1321
-20 -3 -8 -10.5071 -0.1833
-20 -3 -7 -3.6318 -0.0897
-20 -3 -6 -2.2430 5.4113
-20 -3 -5 2.0340 -5.3449
-20 -3 -4 -4.6332 0.8317
-20 -3 -3 15.3302 -4.5521
-20 -3 -2 4.4772 6.2461
-20 -3 -1 0.2947 -3.4136
-20 -2 -12 0.2692 0.6598
-20 -2 -11 1.4507 -1.4500
-20 -2 -10 0.0775 4.7754
-20 -2 -9 7.7996 8.7862
-20 -2 -8 -2.6520 -0.0268
-20 -2 -7 -0.3009 -2.6229
-20 -2 -6 0.5739 1.2964
-20 -2 -5 1.1429 0.9842
-20 -2 -4 -6.2381 -6.1863
-20 -2 -3 -0.3883 2.8023
-20 -2 -2 6.6588 -10.6435
-20 -2 -1 3.6235 7.6288
-20 -1 -13 -0.4784 0.6933
-20 -1 -12 2.5587 -0.0020
-20 -1 -11 -0.6941 -0.5238
-20 -1 -10 2.2939 -7.1286
-20 -1 -9 -0.6274 1.1162
-20 -1 -8 -3.5152 -1.0033
-20 -1 -7 -6.3441 1.2367
-20 -1 -6 -5.8597 7.4951
-20 -1 -5 2.1692 8.3542
-20 -1 -4 8.7190 0.1444
-20 -1 -3 -6.4350 4.2129
-20 -1 -2 2.3013 0.0469
-20 -1 -1 -0.6819 -2.4915
-19 -12 -2 5.1705 -3.9968
-19 -12 -1 -2.5840 2.7678
-19 -11 -4 -3.2985 7.2436
-19 -11 -3 -0.9036 -3.1383
-19 -11 -2 0.4922 0.0768
-19 -11 -1 3.9567 -4.9574
-19 -10 -6 1.1700 7.3139
-19 -10 -5 -6.6760 -0.1846
-19 -10 -4 -1.5785 3.1739
-19 -10 -3 4.2133 13.6051
-19 -10 -2 -3.2397 -1.8789
-19 -10 -1 -9.6578 2.5393
-19 -9 -8 -2.2615 -2.5092
-19 -9 -7 1.5263 5.4499
-19 -9 -6 0.1983 0.1878
-19 -9 -5 7.3476 2.7299
-19 -9 -4 -2.4268 -8.9115
-19 -9 -3 3.9309 4.2154
-19 -9 -2 6.2204 10.6352
-19 -9 -1 -7.2478 7.0109
-19 -8 -10 1.1144 3.3709
-19 -8 -9 1.9776 -3.2671
-19 -8 -8 3.1116 -4.5307
-19 -8 -7 -1.5854 -5.8909
-19 -8 -6 0.0476 -1.7098
-19 -8 -5 -4.1261 -2.3340
-19 -8 -4 2.7607 -3.9761
-19 -8 -3 -3.0086 -6.8907
-19 -8 -2 11.3770 4.6748
-19 -8 -1 5.3079 8.0021
-19 -7 -11 5.2453 4.9746
-19 -7 -10 -0.1033 -4.5048
-19 -7 -9 5.0088 6.5776
-19 -7 -8 -9.3496 -0.3078
-19 -7 -7 2.9802 -8.2469
-19 -7 -6 0.7492 5.3998
-19 -7 -5 -5.9598 -1.4262
-19 -7 -4 0.9776 -5.0583
-19 -7 -3 7.7602 -7.9705
-19 -7 -2 0.5947 -13.4687
-19 -7 -1 5.8663 -10.0316
-19 -6 -13 8.2923 -5.2368
-19 -6 -12 0.2093 3.5577
-19 -6 -11 -4.5896 -6.0918
-19 -6 -10 10.9184 -3.3856
-19 -6 -9 -5.8456 -0.5758
-19 -6 -8 -1.9757 7.1979
-19 -6 -7 -0.7867 5.9813
-19 -6 -6 -2.4156 2.6672
-19 -6 -5 3.0715 -0.2840
-19 -6 -4 -8.0382 0.5967
-19 -6 -3 -10.1175 -4.0996
-19 -6 -2 -2.7065 -3.9317
-19 -6 -1 0.0411 -9.3842
-19 -5 -14 -7.8237 -8.4338
-19 -5 -13 -1.8256 2.6999
-19 -5 -12 -3.6845 3.9408
-19 -5 -11 -2.7089 -6.8609
-19 -5 -10 -3.2291 3.7532
-19 -5 -9 4.8411 -5.1794
-19 -5 -8 2.2108 -1.7149
-19 -5 -7 7.2830 8.7501
-19 -5 -6 -1.8348 -5.5345
-19 -5 -5 2.8077 4.6170
-19 -5 -4 1.8411 10.6115
-19 -5 -3 -8.3877 3.6271
-19 -5 -2 -3.8113 7.2002
-19 -5 -1 -1.7593 7.8779
-19 -4 -14 5.0249 1.9252
-19 -4 -13 -6.8466 1.6064
-19 -4 -12 2.2829 8.7452
-19 -4 -11 7.1457 2.5643
-19 -4 -10 -7.7049 -5.0019
-19 -4 -9 -6.6666 3.4271
-19 -4 -8 -1.2084 -1.4847
-19 -4 -7 -4.0999 -0.1234
-19 -4 -6 11.6213 1.7455
-19 -4 -5 -8.7709 -8.1329
-19 -4 -4 7.8768 -2.5498
-19 -4 -3 7.7841 5.8106
-19 -4 -2 -6.0190 -5.5146
-19 -4 -1 -1.3611 2.4870
-19 -3 -14 1.7207 2.9437
-19 -3 -13 7.7198 -4.1779
-19 -3 -12 -4.4251 -6.2735
-19 -3 -11 7.3281 2.3275
-19 -3 -10 5.1614 -4.7827
-19 -3 -9 -6.4283 7.4344
-19 -3 -8 2.1875 3.1183
-19 -3 -7 8.6762 2.7948
-19 -3 -6 -2.9627 4.2140
-19 -3 -5 2.3152 -3.6133
-19 -3 -4 -6.7237 -11.3253
-19 -3 -3 6.2702 -0.3033
-19 -3 -2 1.5023 -4.0313
-19 -3 -1 -6.7310 -0.7182
-19 -2 -14 0.3728 -0.1606
-19 -2 -13 -2.1755 7.6697
-19 -2 -12 -3.5073 -8.0594
-19 -2 -11 -8.5568 -3.1096
-19 -2 -10 7.5257 1.4414
-19 -2 -9 -4.4509 -6.7996
-19 -2 -8 3.6100 -2.6174
-19 -2 -7 1.4541 -3.3952
-19 -2 -6 1.1284 0.6946
-19 -2 -5 -3.0201 5.4130
-19 -2 -4 -3.5025 1.9703
-19 -2 -3 -12.4482 -8.9333
-19 -2 -2 3.9361 3.4364
-19 -2 -1 -7.0564 -3.1703
-19 -1 -14 1.2246 0.2149
-19 -1 -13 1.6165 3.8499
-19 -1 -12 2.9108 9.0742
-19 -1 -11 0.9154 -3.3412
-19 -1 -10 -8.6733 5.4512
-19 -1 -9 -0.7579 -5.2847
-19 -1 -8 -5.8075 8.3876
-19 -1 -7 3.5499 5.2500
-19 -1 -6 6.4246 2.2310
-19 -1 -5 12.9493 -1.3184
-19 -1 -4 3.7929 3.9973
-19 -1 -3 -0.5937 -1.5638
-19 -1 -2 -9.2554 2.3217
-19 -1 -1 7.5757 -3.2463
-18 -13 -3 0.9604 3.3640
-18 -13 -2 -0.2080 -3.3355
-18 -13 -1 -1.1442 -3.5474
-18 -12 -6 0.0404 8.2601
-18 -12 -5 0.5615 0.9971
-18 -12 -4 -8.2256 0.2924
-18 -12 -3 -6.5465 -3.1149
-18 -12 -2 -2.2311 8.5481
-18 -12 -1 -4.5953 2.4525
-18 -11 -8 -1.9339 -9.0518
-18 -11 -7 -0.4762 -2.9500
-18 -11 -6 5.9255 -5.6538
-18 -11 -5 10.8673 10.4267
-18 -11 -4 4.0485 1.8061
-18 -11 -3 3.5507 -2.6355
-18 -11 -2 -0.3206 -2.4256
-18 -11 -1 7.8958 4.6393
-18 -10 -10 4.4215 -1.8517
-18 -10 -9 -3.9582 7.3585
-18 -10 -8 -7.8011 0.5767
-18 -10 -7 -2.2356 1.9623
-18 -10 -6 -4.9023 -1.4295
-18 -10 -5 -4.8865 -10.6595
-18 -10 -4 15.0124 7.3143
-18 -10 -3 -1.3224 -1.6476
-18 -10 -2 -2.1833 -8.4450
-18 -10 -1 -1.5214 -6.8039
-18 -9 -11 -6.7238 -8.6199
-18 -9 -10 6.3852 0.0646
-18 -9 -9 -8.9555 0.7136
-18 -9 -8 5.0402 4.6982
-18 -9 -7 -1.8852 8.8164
-18 -9 -6 4.5390 8.3230
-18 -9 -5 -9.9436 -8.1295
-18 -9 -4 -4.0891 0.3170
-18 -9 -3 1.0005 13.5473
-18 -9 -2 -5.5542 3.6275
-18 -9 -1 -10.2861 -12.7373
-18 -8 -13 5.5650 2.7859
-18 -8 -12 3.0218 -2.0832
-18 -8 -11 3.2670 -1.1182
-18 -8 -10 1.4448 2.6583
-18 -8 -9 1.9720 -6.2871
-18 -8 -8 -1.8958 -3.5607
-18 -8 -7 6.3199 -2.1217
-18 -8 -6 -0.4842 8.5400
-18 -8 -5 9.1462 -1.2109
-18 -8 -4 -2.8368 -0.2079
-18 -8 -3 6.2305 4.7442
-18 -8 -2 4.0983 20.5467
-18 -8 -1 0.7445 -5.7300
-18 -7 -14 5.3299 3.7030
-18 -7 -13 -9.6517 -0.0091
-18 -7 -12 3.4264 -0.6632
-18 -7 -11 0.1674 -6.3142
-18 -7 -10 2.6407 -2.9303
-18 -7 -9 -6.4471 2.8068
-18 -7 -8 -5.0955 -12.8050
-18 -7 -7 5.9716 0.2479
-18 -7 -6 -5.6526 -2.8302
-18 -7 -5 0.0117 -5.8917
-18 -7 -4 2.0650 -12.9894
-18 -7 -3 0.0374 -6.1948
-18 -7 -2 -7.0300 -2.2313
-18 -7 -1 6.4524 14.6614
-18 -6 -15 -8.0468 -8.0230
-18 -6 -14 0.1051 -4.0240
-18 -6 -13 6.5797 5.8096
-18 -6 -12 -12.0358 -0.0359
-18 -6 -11 4.0697 -4.8166
-18 -6 -10 -6.0828 5.4726
-18 -6 -9 -4.3368 5.8427
-18 -6 -8 -0.3503 4.7566
-18 -6 -7 -1.9138 -0.1242
-18 -6 -6 4.1322 -3.4551
-18 -6 -5 -0.8018 2.6656
-18 -6 -4 -9.8183 -3.4955
-18 -6 -3 -4.1143 1.1013
-18 -6 -2 -1.2998 -3.8853
-18 -6 -1 -1.2246 4.3954
-18 -5 -16 0.2465 7.2170
-18 -5 -15 -4.2536 -4.1514
-18 -5 -14 -8.7071 -0.6036
-18 -5 -13 -2.9152 10.4770
-18 -5 -12 5.9666 -1.3032
-18 -5 -11 1.9335 2.2291
-18 -5 -10 0.5814 1.7187
-18 -5 -9 3.8920 2.3840
-18 -5 -8 3.5244 7.7846
-18 -5 -7 -4.6737 -4.2418
-18 -5 -6 -1.4793 -2.1201
-18 -5 -5 2.3289 0.5105
-18 -5 -4 3.3798 -0.5177
-18 -5 -3 -2.3162 -2.1417
-18 -5 -2 6.6364 9.6625
-18 -5 -1 1.2955 -5.8510
-18 -4 -16 -7.5890 3.9893
-18 -4 -15 12.1618 10.7376
-18 -4 -14 2.2168 2.4195
-18 -4 -13 -3.9575 -4.4026
-18 -4 -12 5.2751 4.7825
-18 -4 -11 5.3995 -8.3689
-18 -4 -10 -2.9596 -1.0226
-18 -4 -9 6.6874 1.9795
-18 -4 -8 2.6352 4.2484
-18 -4 -7 8.9604 2.7005
-18 -4 -6 -6.1781 4.1522
-18 -4 -5 -7.7607 -5.7371
-18 -4 -4 3.6610 1.1623
-18 -4 -3 -7.1190 -2.5881
-18 -4 -2 -7.9310 -3.4794
-18 -4 -1 1.5481 0.7547
-18 -3 -17 2.6484 3.3823
-18 -3 -16 1.6826 -6.8232
-18 -3 -15 -0.1952 4.3682
-18 -3 -14 11.1221 4.1635
-18 -3 -13 1.0219 -6.5493
-18 -3 -12 -10.9820 -6.0231
-18 -3 -11 -4.2759 3.3175
-18 -3 -10 -1.7203 -4.8138
-18 -3 -9 -2.9561 2.5640
-18 -3 -8 15.2631 -9.8772
-18 -3 -7 -2.2839 5.4046
-18 -3 -6 3.1652 -1.4296
-18 -3 -5 -0.9207 3.7414
-18 -3 -4 -0.9300 1.2969
-18 -3 -3 0.2448 7.4156
-18 -3 -2 -6.3653 6.3503
-18 -3 -1 0.6189 2.7944
-18 -2 -17 1.5635 0.6249
-18 -2 -16 -2.8280 -2.8191
-18 -2 -15 -1.0221 -11.1900
-18 -2 -14 -1.0434 4.5611
-18 -2 -13 2.2018 4.6183
-18 -2 -12 5.3278 -2.9052
-18 -2 -11 -3.5529 5.1525
-18 -2 -10 -2.0953 3.1975
-18 -2 -9 -2.3084 -8.6686
-18 -2 -8 2.1246 2.4231
-18 -2 -7 1.8266 -12.4178
-18 -2 -6 -2.8718 6.3522
-18 -2 -5 4.6335 -0.2028
-18 -2 -4 -1.3194 -2.2810
-18 -2 -3 8.8909 1.8112
-18 -2 -2 0.6403 7.3345
-18 -2 -1 3.8564 2.5440
-18 -1 -17 0.2174 1.2168
-18 -1 -16 -1.9246 1.1817
-18 -1 -15 -4.5217 2.6351
-18 -1 -14 0.3949 -3.4195
-18 -1 -13 -4.1930 -2.6793
-18 -1 -12 5.9232 -3.1110
-18 -1 -11 1.8267 -2.3556
-18 -1 -10 -5.6815 -5.7158
-18 -1 -9 2.1608 5.0512
-18 -1 -8 -8.7609 1.5039
-18 -1 -7 10.5386 -2.8393
-18 -1 -6 1.2967 -11.7204
-18 -1 -5 -4.2935 -2.0862
-18 -1 -4 -0.9833 -9.6902
-18 -1 -3 -4.0478 0.8220
-18 -1 -2 4.7279 -8.0506
-18 -1 -1 2.4903 0.7918
-17 -14 -5 -6.3667 1.6319
-17 -14 -4 5.0939 4.4019
-17 -14 -3 -2.2544 -2.8752
-17 -13 -7 3.5766 -6.8059
-17 -13 -6 -4.0329 0.3777
-17 -13 -5 -3.9297 -5.1204
-17 -13 -4 -2.7991 11.1868
-17 -13 -3 3.6159 -2.3852
-17 -13 -2 1.3351 -2.1935
-17 -13 -1 8.1794 -0.3650
-17 -12 -10 1.0974 0.3146
-17 -12 -9 -8.8113 -3.3380
-17 -12 -8 7.2910 -2.4150
-17 -12 -7 6.8814 2.2326
-17 -12 -6 -0.2491 -5.3791
-17 -12 -5 6.0215 -0.2337
-17 -12 -4 -10.2223 -3.0730
-17 -12 -3 0.1548 11.3327
-17 -12 -2 2.6093 -2.5725
-17 -12 -1 7.6053 4.5037
-17 -11 -11 -3.2671 -0.7669
-17 -11 -10 -8.6573 4.7263
-17 -11 -9 -5.2831 -8.6387
-17 -11 -8 -9.2065 6.5449
-17 -11 -7 2.1511 -1.9612
-17 -11 -6 4.8108 -6.6124
-17 -11 -5 -0.2226 2.6754
-17 -11 -4 3.6032 -10.7853
-17 -11 -3 -8.1991 0.3013
-17 -11 -2 -1.8150 1.3618
-17 -11 -1 -2.1448 -10.2582
-17 -10 -13 -5.8707 0.2261
-17 -10 -12 6.6417 3.0055
-17 -10 -11 1.6893 -2.8066
-17 -10 -10 -10.0374 12.2023
-17 -10 -9 -0.6982 4.0321
-17 -10 -8 -1.8909 1.6509
-17 -10 -7 -1.3486 13.8207
-17 -10 -6 -2.7029 -4.7997
-17 -10 -5 5.2302 -1.8394
-17 -10 -4 2.4398 6.5243
-17 -10 -3 1.7912 -7.2348
-17 -10 -2 -3.9719 1.7865
-17 -10 -1 7.7849 -2.4793
-17 -9 -14 8.5162 -0.0876
-17 -9 -13 1.8396 -5.1917
-17 -9 -12 -4.2632 -1.5453
-17 -9 -11 17.2878 -3.7596
-17 -9 -10 -4.2172 10.5782
-17 -9 -9 4.5115 1.5159
-17 -9 -8 10.7759 -0.6445
-17 -9 -7 4.4615 2.3887
-17 -9 -6 2.3223 -0.0422
-17 -9 -5 -1.1933 -4.6798
-17 -9 -4 2.3053 6.8943
-17 -9 -3 -3.3132 -2.4277
-17 -9 -2 4.6949 -8.1739
-17 -9 -1 1.1356 -1.8643
-17 -8 -15 -0.6325 -3.1936
-17 -8 -14 -7.9876 0.6102
-17 -8 -13 -4.3540 -4.7529
-17 -8 -12 -7.4375 -7.6960
-17 -8 -11 1.8605 -1.6575
-17 -8 -10 -3.5165 -6.9353
-17 -8 -9 -4.5870 -0.1135
-17 -8 -8 1.2978 -4.5897
-17 -8 -7 -4.6562 -2.0791
-17 -8 -6 2.0934 -6.9743
-17 -8 -5 -1.5992 -1.7682
-17 -8 -4 -2.3775 4.3525
-17 -8 -3 3.9429 5.7868
-17 -8 -2 -13.3180 -3.7796
-17 -8 -1 5.2085 -8.7912
-17 -7 -16 1.0341 0.1846
-17 -7 -15 10.3394 0.6150
-17 -7 -14 -4.9377 5.9912
-17 -7 -13 0.8615 4.7607
-17 -7 -12 1.8759 3.8034
-17 -7 -11 -0.9942 4.0165
-17 -7 -10 -1.6922 0.9650
-17 -7 -9 -5.3323 -0.7742
-17 -7 -8 4.4571 4.8461
-17 -7 -7 -5.2856 8.4367
-17 -7 -6 -7.0903 1.2547
-17 -7 -5 -1.7748 -6.4786
-17 -7 -4 -1.6568 7.6216
-17 -7 -3 0.2019 17.2818
-17 -7 -2 0.7617 3.3408
-17 -7 -1 -1.2595 13.1223
-17 -6 -17 0.8581 -4.1396
-17 -6 -16 -6.9934 0.7983
-17 -6 -15 -4.9995 2.2610
-17 -6 -14 8.9404 0.1946
-17 -6 -13 -1.6498 1.9811
-17 -6 -12 5.3246 -7.8058
-17 -6 -11 -0.5957 4.7101
-17 -6 -10 -0.9363 3.9910
-17 -6 -9 2.3826 0.2392
-17 -6 -8 7.5300 -8.0713
-17 -6 -7 4.9736 -1.4660
-17 -6 -6 4.3279 2.9249
-17 -6 -5 0.0253 -1.1873
-17 -6 -4 -2.6296 -3.8115
-17 -6 -3 7.0780 8.6839
-17 -6 -2 13.3185 0.4889
-17 -6 -1 -0.6553 -0.2707
-17 -5 -18 -2.8612 -1.9720
-17 -5 -17 1.2406 -1.7055
-17 -5 -16 2.3658 -3.1071
-17 -5 -15 -1.7936 2.9199
-17 -5 -14 -2.2759 7.4381
-17 -5 -13 6.2445 -2.8418
-17 -5 -12 3.9412 -2.4082
-17 -5 -11 3.7650 -1.5805
-17 -5 -10 0.3083 -1.0364
-17 -5 -9 -0.3576 4.1602
-17 -5 -8 -5.3568 -5.9688
-17 -5 -7 -2.1111 -14.2852
-17 -5 -6 -6.5383 -0.3210
-17 -5 -5 5.8110 -1.9379
-17 -5 -4 -4.6345 -3.9479
-17 -5 -3 -3.1329 3.0848
-17 -5 -2 6.7219 -1.6882
-17 -5 -1 7.9913 -14.0193
-17 -4 -18 -2.8129 4.8416
-17 -4 -17 -6.2994 2.4511
-17 -4 -16 9.0006 -1.7501
-17 -4 -15 6.8301 -0.1394
-17 -4 -14 -4.4758 -8.6913
-17 -4 -13 -0.4558 -0.7140
-17 -4 -12 -3.6666 -8.0711
-17 -4 -11 -3.4651 -0.3949
-17 -4 -10 3.4370 -4.2233
-17 -4 -9 1.4870 0.9298
-17 -4 -8 -4.6904 5.1728
-17 -4 -7 -0.9891 -1.2049
-17 -4 -6 -12.3499 -7.7862
-17 -4 -5 -1.5863 -2.1631
-17 -4 -4 7.2032 1.9868
-17 -4 -3 -11.0282 3.7810
-17 -4 -2 0.2589 5.0597
-17 -4 -1 0.2182 1.3022
-17 -3 -18 2.8498 3.2406
-17 -3 -17 -3.4141 -3.6221
-17 -3 -16 -0.8879 0.0349
-17 -3 -15 2.7633 -3.0296
-17 -3 -14 0.9114 -3.0783
-17 -3 -13 -8.8655 0.4092
-17 -3 -12 -4.1877 6.5122
-17 -3 -11 -10.3908 3.6215
-17 -3 -10 1.6614 9.6962
-17 -3 -9 5.8934 -5.9480
-17 -3 -8 1.4035 5.6880
-17 -3 -7 -7.4327 7.9331
-17 -3 -6 4.2611 -0.3569
-17 -3 -5 -8.6501 -4.5337
-17 -3 -4 3.5658 -0.8157
-17 -3 -3 4.0911 0.1508
-17 -3 -2 2.1102 2.5694
-17 -3 -1 6.9061 -1.7347
-17 -2 -18 3.3264 3.7008
-17 -2 -17 -3.4185 2.3678
-17 -2 -16 -10.5342 0.5887
-17 -2 -15 0.6661 5.3434
-17 -2 -14 -0.2097 3.6394
-17 -2 -13 4.2719 -2.6224
-17 -2 -12 8.3712 6.9361
-17 -2 -11 1.8805 -1.9686
-17 -2 -10 -4.1101 0.7048
-17 -2 -9 2.2334 4.8800
-17 -2 -8 0.1357 -4.2039
-17 -2 -7 -0.5764 8.3824
-17 -2 -6 -3.2922 6.8984
-17 -2 -5 2.2874 -1.9472
-17 -2 -4 -3.8161 0.1650
-17 -2 -3 2.1142 2.0962
-17 -2 -2 -0.1514 -4.4507
-17 -2 -1 2.0204 1.8628
-17 -1 -18 2.5060 -0.4641
-17 -1 -17 6.3812 1.1347
-17 -1 -16 -2.8133 1.7107
-17 -1 -15 4.9623 6.8819
-17 -1 -14 2.2594 2.6380
-17 -1 -13 1.4161 -7.4905
-17 -1 -12 -0.9145 -0.9107
-17 -1 -11 2.5855 -0.9770
-17 -1 -10 6.2721 -0.4629
-17 -1 -9 -5.4457 7.6274
-17 -1 -8 7.5810 -0.6293
-17 -1 -7 4.8933 1.9723
-17 -1 -6 -2.5263 2.9779
-17 -1 -5 -1.2619 -2.2974
-17 -1 -4 2.3133 1.1802
-17 -1 -3 -2.4425 1.0332
-17 -1 -2 4.7309 -0.9237
-17 -1 -1 -8.4196 2.9954
-16 -15 -6 -0.7806 1.9076
-16 -15 -5 2.7909 -0.2430
-16 -14 -8 -4.2143 -1.7685
-16 -14 -7 3.9217 -2.5826
-16 -14 -6 -11.0760 5.4745
-16 -14 -5 -1.4061 4.4314
-16 -14 -4 -1.5186 -1.4900
-16 -14 -3 1.2063 -10.8128
-16 -13 -11 3.4274 1.5227
-16 -13 -10 3.4827 -3.1899
-16 -13 -9 4.2628 -3.1065
-16 -13 -8 -4.9328 -6.2530
-16 -13 -7 -4.3753 1.5597
-16 -13 -6 0.8662 -1.9701
-16 -13 -5 0.2734 16.4352
-16 -13 -4 1.8934 0.8314
-16 -13 -3 -1.4154 -5.5055
-16 -13 -2 0.5578 -4.3236
-16 -13 -1 -6.0753 -0.2455
-16 -12 -13 -2.5817 -5.1107
-16 -12 -12 -4.7414 7.8769
-16 -12 -11 1.2815 4.6318
-16 -12 -10 0.8682 2.5682
-16 -12 -9 1.2592 -3.5474
-16 -12 -8 4.9050 7.6932
-16 -12 -7 -5.9149 -4.4055
-16 -12 -6 5.1035 -8.7967
-16 -12 -5 -5.5274 -3.8001
-16 -12 -4 5.0807 14.8554
-16 -12 -3 -1.2034 -1.7209
-16 -12 -2 1.8492 7.2599
-16 -12 -1 6.1507 -6.2136
-16 -11 -14 3.0390 3.2410
-16 -11 -13 5.0071 -5.2938
-16 -11 -12 -0.4287 -4.5697
-16 -11 -11 -9.0016 8.5128
-16 -11 -10 -0.2772 0.1063
-16 -11 -9 10.1929 4.8831
-16 -11 -8 -0.0574 1.5982
-16 -11 -7 5.2955 3.3251
-16 -11 -6 -2.8195 -0.2712
-16 -11 -5 -6.0309 -12.2909
-16 -11 -4 -3.2411 2.3329
-16 -11 -3 9.2137 9.0620
-16 -11 -2 -10.9466 -2.2642
-16 -11 -1 9.1375 13.5189
-16 -10 -15 -3.5113 -1.5897
-16 -10 -14 -2.4018 1.7794
-16 -10 -13 4.9104 0.2674
-16 -10 -12 4.1127 -4.1244
-16 -10 -11 -3.0524 5.5872
-16 -10 -10 -3.8628 0.8761
-16 -10 -9 10.7444 0.8619
-16 -10 -8 8.7715 -4.0462
-16 -10 -7 -0.4804 -1.6188
-16 -10 -6 9.7013 0.7388
-16 -10 -5 3.1415 0.1995
-16 -10 -4 -4.8764 -13.6658
-16 -10 -3 3.7553 4.2703
-16 -10 -2 7.4996 -15.1589
-16 -10 -1 0.6562 10.2890
-16 -9 -16 1.6921 3.1412
-16 -9 -15 4.7360 -5.1994
-16 -9 -14 -1.6312 -0.6511
-16 -9 -13 -2.7389 0.2331
-16 -9 -12 3.5099 -9.2742
-16 -9 -11 -0.0381 4.5479
-16 -9 -10 -6.6244 -2.8761
-16 -9 -9 -0.5308 -5.5848
-16 -9 -8 1.5088 -2.3953
-16 -9 -7 -6.1487 -10.7838
-16 -9 -6 -4.5918 -1.9109
-16 -9 -5 0.4451 1.3612
-16 -9 -4 -2.4222 -3.1554
-16 -9 -3 -5.6895 -9.2742
-16 -9 -2 5.5725 1.0876
-16 -9 -1 -4.2476 -6.7694
-16 -8 -17 2.5688 -5.1427
-16 -8 -16 0.1042 -6.5186
-16 -8 -15 -4.2189 -2.5131
-16 -8 -14 -6.4994 -2.6622
-16 -8 -13 0.1502 7.6889
-16 -8 -12 5.2890 5.2108
-16 -8 -11 0.7932 0.5708
-16 -8 -10 -4.0412 3.9275
-16 -8 -9 -0.7159 2.0555
-16 -8 -8 -5.7831 7.5019
-16 -8 -7 -2.1542 -2.2738
-16 -8 -6 -5.4403 5.9914
-16 -8 -5 -5.3843 4.4941
-16 -8 -4 1.2366 5.3909
-16 -8 -3 -6.1750 -1.1747
-16 -8 -2 -3.7411 -13.0172
-16 -8 -1 0.0866 0.9908
-16 -7 -18 -2.0592 -0.9828
-16 -7 -17 -1.4829 3.8675
-16 -7 -16 -1.0873 -2.8791
-16 -7 -15 -5.1096 0.3378
-16 -7 -14 -2.8439 -6.5130
-16 -7 -13 4.2293 -5.1060
-16 -7 -12 5.5580 -3.1409
-16 -7 -11 1.5525 -4.5848
-16 -7 -10 2.9098 -6.4960
-16 -7 -9 1.7981 2.8869
-16 -7 -8 0.1016 4.3032
-16 -7 -7 0.5172 3.6419
-16 -7 -6 -0.0586 -4.0653
-16 -7 -5 7.8443 7.3054
-16 -7 -4 -0.2062 9.0064
-16 -7 -3 -1.0739 3.0641
-16 -7 -2 2.0878 0.6216
-16 -7 -1 -4.3280 -11.3678
-16 -6 -18 1.4803 -4.8585
-16 -6 -17 -1.9038 7.7683
-16 -6 -16 -0.5312 12.1986
-16 -6 -15 2.4468 2.1677
-16 -6 -14 -1.1375 2.5998
-16 -6 -13 -9.0478 -5.8004
-16 -6 -12 -4.5853 0.5090
-16 -6 -11 -7.1836 0.9788
-16 -6 -10 2.8240 5.5208
-16 -6 -9 0.9103 -6.6660
-16 -6 -8 3.8389 1.5277
-16 -6 -7 -5.6719 6.4863
-16 -6 -6 2.7016 -2.0826
-16 -6 -5 -3.4994 5.6301
-16 -6 -4 7.4781 0.6763
-16 -6 -3 1.5726 -0.1206
-16 -6 -2 -3.2543 2.4252
-16 -6 -1 -3.9479 2.7019
-16 -5 -19 -4.6626 1.5342
-16 -5 -18 3.5113 0.7770
-16 -5 -17 2.0261 -4.0575
-16 -5 -16 2.4395 4.5448
-16 -5 -15 1.3333 5.7197
-16 -5 -14 5.1019 -1.1528
-16 -5 -13 0.7435 -0.4033
-16 -5 -12 0.1464 -0.1622
-16 -5 -11 -0.2660 -0.9182
-16 -5 -10 0.6827 -1.2806
-16 -5 -9 -1.9022 0.1273
-16 -5 -8 1.0882 -6.8982
-16 -5 -7 -1.2511 5.6572
-16 -5 -6 2.7542 3.8543
-16 -5 -5 5.5234 4.3619
-16 -5 -4 6.3194 12.2890
-16 -5 -3 7.9737 -1.7569
-16 -5 -2 0.1519 -7.7578
-16 -5 -1 -3.0173 0.0891
-16 -4 -19 1.5986 1.3969
-16 -4 -18 -1.5145 0.1042
-16 -4 -17 6.7138 -2.9847
-16 -4 -16 4.2420 0.2844
-16 -4 -15 -2.6368 -3.2463
-16 -4 -14 -4.6282 1.7544
-16 -4 -13 -2.7081 1.2551
-16 -4 -12 -2.8911 2.6637
-16 -4 -11 -1.5002 -0.4269
-16 -4 -10 3.2098 -1.0261
-16 -4 -9 -0.4614 0.8055
-16 -4 -8 -4.2735 -2.4787
-16 -4 -7 1.6737 -2.5567
-16 -4 -6 -6.2033 -1.3436
-16 -4 -5 5.8124 -7.9424
-16 -4 -4 1.5335 6.3052
-16 -4 -3 6.3553 1.4040
-16 -4 -2 5.0233 -3.0261
-16 -4 -1 -7.0691 -0.7765
-16 -3 -19 0.8797 3.1241
-16 -3 -18 -0.9514 -4.0788
-16 -3 -17 -0.4868 -6.2063
-16 -3 -16 -2.3035 -1.6539
-16 -3 -15 4.4101 2.4172
-16 -3 -14 -1.3666 0.5295
-16 -3 -13 -2.0331 6.9762
-16 -3 -12 -1.2524 5.6619
-16 -3 -11 4.4634 0.9248
-16 -3 -10 2.2242 0.8987
-16 -3 -9 6.3017 -4.7505
-16 -3 -8 0.5078 -3.4728
-16 -3 -7 0.2853 -5.0394
-16 -3 -6 -0.7726 -1.9183
-16 -3 -5 -3.2430 -1.2792
-16 -3 -4 -2.8586 -2.6359
-16 -3 -3 -0.5802 1.5615
-16 -3 -2 5.2533 -3.4617
-16 -3 -1 -5.8262 -4.7049
-16 -2 -20 -0.1900 -0.1938
-16 -2 -19 7.3562 0.4110
-16 -2 -18 -1.1075 3.1205
-16 -2 -17 -1.9521 1.0628
-16 -2 -16 5.6332 -3.0465
-16 -2 -15 3.0918 4.1347
-16 -2 -14 8.5995 -1.9009
-16 -2 -13 6.2875 -3.8522
-16 -2 -12 -3.1594 -0.6869
-16 -2 -11 1.2627 -1.2509
-16 -2 -10 -6.6287 2.0216
-16 -2 -9 -3.4562 0.7846
-16 -2 -8 2.2980 3.2251
-16 -2 -7 -5.5500 -0.4628
-16 -2 -6 1.6845 -8.2901
-16 -2 -5 0.9891 2.7120
-16 -2 -4 2.4117 -0.5128
-16 -2 -3 -2.1178 -1.4065
-16 -2 -2 0.1512 6.8323
-16 -2 -1 2.3654 -0.7933
-16 -1 -20 -5.4581 -4.4645
-16 -1 -19 -4.5280 1.6692
-16 -1 -18 1.6641 -2.1259
-16 -1 -17 -8.8392 -0.8593
-16 -1 -16 7.0412 -3.5980
-16 -1 -15 3.6860 -4.3034
-16 -1 -14 -2.6526 -5.9281
-16 -1 -13 1.5833 -2.3126
-16 -1 -12 -0.5556 -3.1250
-16 -1 -11 0.5062 4.1384
-16 -1 -10 0.6021 2.3603
-16 -1 -9 -0.5904 -1.5411
-16 -1 -8 7.0192 3.1137
-16 -1 -7 -0.5179 1.4814
-16 -1 -6 -1.5616 -1.2697
-16 -1 -5 -5.4980 -9.2791
-16 -1 -4 -0.9133 1.6536
-16 -1 -3 1.4704 -4.7874
-16 -1 -2 -5.6616 3.9229
-16 -1 -1 2.7046 3.1493
-15 -14 -11 2.1543 4.0193
-15 -14 -10 4.9400 0.0115
-15 -14 -9 -9.0604 -0.2068
-15 -14 -8 3.9307 -0.9449
-15 -14 -7 -0.7557 5.3720
-15 -14 -6 -1.8849 2.1170
-15 -14 -5 4.3640 -0.9694
-15 -14 -4 0.8753 -5.2673
-15 -14 -3 14.9390 5.8068
-15 -13 -13 -2.5701 5.1749
-15 -13 -12 3.6611 1.3347
-15 -13 -11 1.9118 -8.2967
-15 -13 -10 1.5787 -4.4848
-15 -13 -9 -4.3971 -2.9448
-15 -13 -8 -8.7198 5.7358
-15 -13 -7 3.4061 -0.6059
-15 -13 -6 3.2450 7.2890
-15 -13 -5 -2.8088 -3.6146
-15 -13 -4 -2.1900 -11.2711
-15 -13 -3 -2.5490 -1.0514
-15 -13 -2 5.5658 -5.6353
-15 -13 -1 -1.9905 14.2722
-15 -12 -15 1.0842 1.6924
-15 -12 -14 -1.2144 -0.2256
-15 -12 -13 4.8457 -0.1816
-15 -12 -12 -1.9907 7.9275
-15 -12 -11 7.2955 0.6992
-15 -12 -10 0.5309 -9.1816
-15 -12 -9 5.2410 1.9722
-15 -12 -8 -3.5021 -0.3499
-15 -12 -7 4.2032 -3.9417
-15 -12 -6 -3.2315 -4.4800
-15 -12 -5 0.2505 8.5033
-15 -12 -4 -2.9242 3.7759
-15 -12 -3 2.0109 -1.5307
-15 -12 -2 4.5080 -8.0996
-15 -12 -1 4.1708 -7.0983
-15 -11 -16 -3.4175 -3.2295
-15 -11 -15 0.2659 2.7189
-15 -11 -14 -2.3512 -0.5147
-15 -11 -13 2.1565 -6.3390
-15 -11 -12 -4.8327 0.0311
-15 -11 -11 -4.8905 3.1009
-15 -11 -10 15.9382 -2.7104
-15 -11 -9 -3.6253 -5.9806
-15 -11 -8 0.2581 -6.7330
-15 -11 -7 -7.7788 0.4270
-15 -11 -6 -3.7911 -2.4433
-15 -11 -5 -6.2153 -2.5254
-15 -11 -4 1.9877 8.1483
-15 -11 -3 -12.2825 1.8564
-15 -11 -2 10.8677 -4.5075
-15 -11 -1 -5.5905 -1.6150
-15 -10 -17 -0.0982 4.9593
-15 -10 -16 5.1685 -3.5810
-15 -10 -15 -2.4738 1.3036
-15 -10 -14 1.9731 3.4188
-15 -10 -13 -3.2372 0.0894
-15 -10 -12 -1.8237 0.3078
-15 -10 -11 -11.9003 -0.9875
-15 -10 -10 5.2959 -0.6717
-15 -10 -9 3.2818 -2.0390
-15 -10 -8 -4.7264 -2.7179
-15 -10 -7 2.8943 -3.3913
-15 -10 -6 -2.9516 6.3032
-15 -10 -5 -0.6649 -2.8385
-15 -10 -4 -1.9160 6.4172
-15 -10 -3 -14.2623 -1.6810
-15 -10 -2 -5.3623 6.2882
-15 -10 -1 -3.6892 -2.6893
-15 -9 -18 7.5174 -4.0474
-15 -9 -17 -2.1366 -5.7852
-15 -9 -16 2.0761 -5.1675
-15 -9 -15 0.8430 -6.4529
-15 -9 -14 -4.0134 5.5240
-15 -9 -13 2.8398 -0.4194
-15 -9 -12 -0.2918 6.4757
-15 -9 -11 -4.8383 7.2285
-15 -9 -10 -5.7492 1.0472
-15 -9 -9 2.5338 0.9873
-15 -9 -8 -5.2854 2.1609
-15 -9 -7 3.7731 2.6962
-15 -9 -6 -2.3339 -2.8718
-15 -9 -5 6.8445 1.6534
-15 -9 -4 4.6391 2.6728
-15 -9 -3 7.7841 4.2243
-15 -9 -2 -9.3807 7.1525
-15 -9 -1 6.8595 3.4926
-15 -8 -19 -4.0721 0.3757
-15 -8 -18 -5.6390 3.4511
-15 -8 -17 -3.7948 -6.0633
-15 -8 -16 -10.7300 1.7262
-15 -8 -15 -2.6310 2.2785
-15 -8 -14 2.5038 1.3646
-15 -8 -13 8.5103 6.2828
-15 -8 -12 6.4106 -11.5635
-15 -8 -11 0.6476 2.9537
-15 -8 -10 0.5455 3.2217
-15 -8 -9 2.8773 6.6528
-15 -8 -8 -2.2131 -3.0150
-15 -8 -7 3.1742 9.6760
-15 -8 -6 1.8215 -0.8383
-15 -8 -5 0.4286 -0.4025
-15 -8 -4 2.2252 -3.1977
-15 -8 -3 -0.4104 -4.6567
-15 -8 -2 6.6541 -4.5677
-15 -8 -1 -1.6003 9.0867
-15 -7 -19 3.2104 0.6766
-15 -7 -18 -2.2512 5.8045
-15 -7 -17 0.9870 8.4777
-15 -7 -16 -4.6271 -1.2470
-15 -7 -15 -3.3464 3.3588
-15 -7 -14 2.2992 -1.2775
-15 -7 -13 -3.7880 1.6876
-15 -7 -12 -2.9407 -4.1708
-15 -7 -11 -7.1405 -12.5678
-15 -7 -10 2.8406 3.4927
-15 -7 -9 -0.4039 4.0704
-15 -7 -8 6.1333 -2.1506
-15 -7 -7 -3.5142 -2.1185
-15 -7 -6 13.0429 2.3059
-15 -7 -5 -1.7893 3.5012
-15 -7 -4 0.3817 1.6318
-15 -7 -3 -2.2177 -2.9471
-15 -7 -2 -1.0922 -3.4994
-15 -7 -1 3.3774 -4.9201
-15 -6 -20 3.9844 2.4732
-15 -6 -19 5.6769 -2.0587
-15 -6 -18 8.7153 -2.0951
-15 -6 -17 5.1493 7.2583
-15 -6 -16 7.6227 -2.6886
-15 -6 -15 3.3317 -3.7550
-15 -6 -14 -1.3523 -0.7338
-15 -6 -13 -0.9103 4.5538
-15 -6 -12 -1.1217 13.9880
-15 -6 -11 1.5336 0.9292
-15 -6 -10 -4.7287 -0.6743
-15 -6 -9 2.2600 -9.3351
-15 -6 -8 2.7114 4.1089
-15 -6 -7 -1.9295 -13.4787
-15 -6 -6 6.8596 2.4744
-15 -6 -5 7.3622 -11.0871
-15 -6 -4 4.4567 -0.0751
-15 -6 -3 -1.0687 -2.5164
-15 -6 -2 -5.8720 4.2687
-15 -6 -1 2.3356 -0.3455
-15 -5 -20 -2.2871 1.6477
-15 -5 -19 2.1470 -5.2001
-15 -5 -18 0.8716 -4.0604
-15 -5 -17 0.3431 -2.1367
-15 -5 -16 4.6575 -0.1616
-15 -5 -15 -2.8920 -4.7928
-15 -5 -14 1.0779 -3.3003
-15 -5 -13 1.2210 -6.6715
-15 -5 -12 6.1824 5.9377
-15 -5 -11 4.9464 1.8780
-15 -5 -10 -4.2052 6.5183
-15 -5 -9 -6.3184 0.8330
-15 -5 -8 -5.3218 6.2687
-15 -5 -7 -2.7085 -0.2206
-15 -5 -6 -6.3130 -4.2505
-15 -5 -5 7.9023 -2.3789
-15 -5 -4 -1.4798 -12.6035
-15 -5 -3 1.6040 -9.2200
-15 -5 -2 -9.2293 -4.7190
-15 -5 -1 -1.9978 2.6093
-15 -4 -20 -6.7265 1.0419
-15 -4 -19 -2.1215 0.8484
-15 -4 -18 2.6519 -4.1581
-15 -4 -17 -4.1810 -0.3590
-15 -4 -16 3.4225 1.2824
-15 -4 -15 0.0606 -0.3869
-15 -4 -14 -3.6059 2.1888
-15 -4 -13 2.0222 -2.7757
-15 -4 -12 -2.2913 -7.1365
-15 -4 -11 9.1941 -2.4047
-15 -4 -10 3.9836 -3.4382
-15 -4 -9 4.4297 4.6697
-15 -4 -8 1.1251 -0.8608
-15 -4 -7 -0.2494 14.0404
-15 -4 -6 -6.0791 -0.8370
-15 -4 -5 0.3822 9.2430
-15 -4 -4 -4.0247 3.1731
-15 -4 -3 -3.8742 -2.8857
-15 -4 -2 -1.8273 -0.9662
-15 -4 -1 -3.6171 2.2611
-15 -3 -20 3.1665 2.7043
-15 -3 -19 -6.1508 -1.0589
-15 -3 -18 -3.2143 -1.5148
-15 -3 -17 -5.0345 -2.9684
-15 -3 -16 -3.9398 4.6080
-15 -3 -15 4.5103 1.5653
-15 -3 -14 -0.2253 0.8091
-15 -3 -13 -2.4525 1.1252
-15 -3 -12 -0.8898 -3.2760
-15 -3 -11 -0.3278 1.3766
-15 -3 -10 -4.6139 -7.9873
-15 -3 -9 -1.5357 -9.1356
-15 -3 -8 1.3193 -4.3443
-15 -3 -7 -4.4510 -2.6971
-15 -3 -6 2.4681 5.1517
-15 -3 -5 3.6632 4.7872
-15 -3 -4 2.3986 3.5882
-15 -3 -3 0.2447 1.9173
-15 -3 -2 -4.6590 -0.0794
-15 -3 -1 -2.5137 0.7288
-15 -2 -21 -1.2142 0.6471
-15 -2 -20 10.2776 -3.6079
-15 -2 -19 1.2473 1.9789
-15 -2 -18 -3.8975 -1.1832
-15 -2 -17 5.1222 -4.3807
-15 -2 -16 -0.6682 -1.3518
-15 -2 -15 -2.3462 -1.4389
-15 -2 -14 -2.5340 -1.6107
-15 -2 -13 -2.6734 -2.6247
-15 -2 -12 -2.4744 -3.3983
-15 -2 -11 -2.0926 8.6832
-15 -2 -10 -1.5631 0.8613
-15 -2 -9 0.6955 3.3698
-15 -2 -8 -2.1120 1.9124
-15 -2 -7 0.9735 -3.9741
-15 -2 -6 -1.0681 -0.9974
-15 -2 -5 0.0715 0.2787
-15 -2 -4 5.5845 -1.1233
-15 -2 -3 0.9035 6.3683
-15 -2 -2 -1.8191 -0.6520
-15 -2 -1 3.4888 -2.3347
-15 -1 -21 -8.8857 -0.9893
-15 -1 -20 -2.3115 8.8810
-15 -1 -19 0.8204 2.2151
-15 -1 -18 -3.3498 5.5844
-15 -1 -17 3.2309 -5.8486
-15 -1 -16 4.1732 0.6389
-15 -1 -15 -3.4628 1.6536
-15 -1 -14 -3.9975 1.9619
-15 -1 -13 -2.0222 5.0804
-15 -1 -12 1.4326 2.2785
-15 -1 -11 -4.1338 -1.5634
-15 -1 -10 2.8348 1.1117
-15 -1 -9 1.3714 -3.4634
-15 -1 -8 0.3294 -4.1696
-15 -1 -7 0.2120 -1.8201
-15 -1 -6 -7.1655 -0.6812
-15 -1 -5 -1.2383 -5.5031
-15 -1 -4 0.0087 2.7279
-15 -1 -3 1.5957 4.9967
-15 -1 -2 5.3473 1.8424
-15 -1 -1 1.4798 2.4733
-14 -13 -14 -0.6417 2.6954
-14 -13 -13 0.0344 1.5438
-14 -13 -12 -0.6265 -4.2250
-14 -13 -11 -0.0987 -3.6082
-14 -13 -10 -13.6726 -0.0282
-14 -13 -9 -9.5613 11.3470
-14 -13 -8 2.1720 -1.4980
-14 -13 -7 5.1187 2.0344
-14 -13 -6 -6.5877 -1.6030
-14 -13 -5 -1.3526 0.9152
-14 -13 -4 -5.9329 6.5349
-14 -13 -3 -5.0307 -6.7869
-14 -13 -2 7.3741 1.6623
-14 -13 -1 1.1763 1.5460
-14 -12 -16 -4.9077 -6.2266
-14 -12 -15 5.4649 3.2274
-14 -12 -14 8.1515 -8.7272
-14 -12 -13 -0.9203 5.2311
-14 -12 -12 -0.2115 -1.6418
-14 -12 -11 2.7584 1.9738
-14 -12 -10 5.6908 -2.0787
-14 -12 -9 -11.1420 2.2647
-14 -12 -8 2.3164 2.3412
-14 -12 -7 -2.7407 -1.5759
-14 -12 -6 0.1242 -1.2492
-14 -12 -5 1.1585 5.2719
-14 -12 -4 4.7875 4.5993
-14 -12 -3 1.9343 -1.5720
-14 -12 -2 -7.8067 -7.7090
-14 -12 -1 -4.4108 -5.2580
-14 -11 -17 -5.1360 6.2187
-14 -11 -16 -2.8524 -4.3237
-14 -11 -15 -11.0772 0.5014
-14 -11 -14 5.0564 -2.9383
-14 -11 -13 -0.9283 -3.6936
-14 -11 -12 -3.6360 1.4743
-14 -11 -11 5.5309 -3.2777
-14 -11 -10 6.0760 7.0092
-14 -11 -9 -3.5344 -8.8965
-14 -11 -8 -7.1822 8.6532
-14 -11 -7 0.4186 7.7352
-14 -11 -6 -2.2561 7.9613
-14 -11 -5 6.2247 4.7709
-14 -11 -4 -3.6977 5.3073
-14 -11 -3 11.1876 -0.0689
-14 -11 -2 7.5337 9.0683
-14 -11 -1 -2.7069 -0.8271
-14 -10 -18 4.4750 3.1129
-14 -10 -17 -3.2328 -4.6394
-14 -10 -16 -1.0539 11.6213
-14 -10 -15 -5.4422 0.6128
-14 -10 -14 -5.3884 6.9696
-14 -10 -13 1.3802 -1.7737
-14 -10 -12 -3.3323 2.7764
-14 -10 -11 0.8868 -7.6774
-14 -10 -10 5.8477 3.0214
-14 -10 -9 1.9071 -2.6737
-14 -10 -8 4.2069 -7.7753
-14 -10 -7 4.8357 0.5822
-14 -10 -6 2.5676 -5.4266
-14 -10 -5 5.5410 6.4378
-14 -10 -4 -0.8326 -1.1977
-14 -10 -3 -3.8000 -3.7928
-14 -10 -2 9.0044 3.8050
-14 -10 -1 7.7645 8.4500
-14 -9 -19 2.0212 -4.1009
-14 -9 -18 -0.2875 1.3705
-14 -9 -17 6.7342 -5.4619
-14 -9 -16 -0.9334 -0.5874
-14 -9 -15 2.9558 13.4547
-14 -9 -14 -0.4046 2.2515
-14 -9 -13 3.1753 3.2176
-14 -9 -12 -0.7267 1.7285
-14 -9 -11 -2.4902 0.1045
-14 -9 -10 -0.6471 -4.6660
-14 -9 -9 0.4194 -1.2959
-14 -9 -8 -2.9276 -2.3273
-14 -9 -7 -2.2627 -4.8842
-14 -9 -6 0.5486 -13.1554
-14 -9 -5 -0.8099 -0.5843
-14 -9 -4 1.0322 1.3165
-14 -9 -3 -1.6508 -2.4410
-14 -9 -2 -3.2907 -4.2273
-14 -9 -1 5.2247 -3.8381
-14 -8 -20 0.5614 1.3646
-14 -8 -19 -2.3540 -0.3223
-14 -8 -18 -4.4602 -1.4602
-14 -8 -17 0.0911 2.1189
-14 -8 -16 6.7565 -6.4600
-14 -8 -15 5.0421 -2.7828
-14 -8 -14 10.4006 6.5466
-14 -8 -13 -2.2349 -4.9289
-14 -8 -12 1.1115 0.2870
-14 -8 -11 -5.6624 5.2707
-14 -8 -10 2.1270 6.5855
-14 -8 -9 4.4288 1.2827
-14 -8 -8 -2.3130 -1.7811
-14 -8 -7 -2.0350 3.5332
-14 -8 -6 3.1936 -2.6830
-14 -8 -5 -5.0729 -5.3283
-14 -8 -4 -1.7227 -0.2608
-14 -8 -3 0.8579 -3.2797
-14 -8 -2 3.0680 5.6808
-14 -8 -1 0.1882 3.0129
-14 -7 -21 -2.7718 -0.2246
-14 -7 -20 3.2937 1.0292
-14 -7 -19 1.3717 0.1647
-14 -7 -18 0.5357 2.3561
-14 -7 -17 -7.6204 2.4255
-14 -7 -16 -0.3698 -0.6321
-14 -7 -15 4.5098 -7.9432
-14 -7 -14 0.3516 -4.5441
-14 -7 -13 2.1205 0.7248
-14 -7 -12 -4.1772 -0.1436
-14 -7 -11 5.8375 0.9989
-14 -7 -10 -5.6485 5.7244
-14 -7 -9 5.4259 1.8881
-14 -7 -8 2.6592 -4.6757
-14 -7 -7 -2.6856 -0.8277
-14 -7 -6 0.1154 5.2341
-14 -7 -5 -0.3335 -5.4880
-14 -7 -4 -3.4555 0.9524
-14 -7 -3 0.5241 -4.2754
-14 -7 -2 -2.6743 -6.8823
-14 -7 -1 4.0906 2.9427
-14 -6 -21 0.5996 -2.0018
-14 -6 -20 0.3795 -2.8928
-14 -6 -19 -0.9768 -8.3675
-14 -6 -18 0.3792 -3.4470
-14 -6 -17 0.1630 -4.5870
-14 -6 -16 -6.7416 0.9048
-14 -6 -15 -6.7950 2.0709
-14 -6 -14 -1.1201 -5.8929
-14 -6 -13 3.2550 2.2550
-14 -6 -12 2.4700 -1.9887
-14 -6 -11 8.5862 2.4966
-14 -6 -10 -4.9845 -6.4917
-14 -6 -9 0.1528 1.8279
-14 -6 -8 -2.4740 1.5140
-14 -6 -7 0.4598 -3.7965
-14 -6 -6 -4.7586 0.5835
-14 -6 -5 -1.0227 -3.7855
-14 -6 -4 -10.4763 -3.9394
-14 -6 -3 -3.1637 7.3568
-14 -6 -2 -1.1356 -2.3333
-14 -6 -1 -0.5786 -4.3864
-14 -5 -21 2.4278 2.9977
-14 -5 -20 -0.4812 3.3967
-14 -5 -19 -1.5788 1.1115
-14 -5 -18 -7.5128 -0.6286
-14 -5 -17 5.3231 -3.9637
-14 -5 -16 -2.8192 0.2246
-14 -5 -15 -7.0480 2.3172
-14 -5 -14 -1.5304 3.3647
-14 -5 -13 1.2350 -3.1889
-14 -5 -12 -2.4182 -4.5065
-14 -5 -11 0.2371 -2.3736
-14 -5 -10 4.7269 -1.8937
-14 -5 -9 0.6511 2.8464
-14 -5 -8 -0.5960 -1.0884
-14 -5 -7 0.2243 1.1285
-14 -5 -6 5.3476 1.5591
-14 -5 -5 -1.5561 2.6530
-14 -5 -4 -7.3363 -5.3994
-14 -5 -3 -12.4001 1.8025
-14 -5 -2 2.6878 4.9544
-14 -5 -1 1.1604 1.8898
-14 -4 -21 -2.1793 2.1581
-14 -4 -20 1.3097 3.0537
-14 -4 -19 7.3192 5.1865
-14 -4 -18 -3.0732 4.5940
-14 -4 -17 0.8816 -0.5229
-14 -4 -16 2.7943 -2.5730
-14 -4 -15 -1.6879 -4.5859
-14 -4 -14 0.6727 0.6625
-14 -4 -13 -3.0394 1.2904
-14 -4 -12 -1.0095 1.9824
-14 -4 -11 -10.3663 2.3409
-14 -4 -10 1.7808 -3.5307
-14 -4 -9 -2.8534 2.0281
-14 -4 -8 1.4255 1.1191
-14 -4 -7 -8.2688 -0.7381
-14 -4 -6 5.2278 -0.1054
-14 -4 -5 8.6248 5.7446
-14 -4 -4 -0.1696 1.9594
-14 -4 -3 -1.0967 -1.4897
-14 -4 -2 -0.7000 3.7234
-14 -4 -1 4.2049 -1.4664
-14 -3 -21 10.2056 -2.7083
-14 -3 -20 -3.2363 -3.7178
-14 -3 -19 0.0287 1.7788
-14 -3 -18 2.7282 2.8091
-14 -3 -17 1.5781 10.5187
-14 -3 -16 1.0994 4.9249
-14 -3 -15 -0.1420 -1.1226
-14 -3 -14 -2.9171 -5.0825
-14 -3 -13 4.2567 -5.3303
-14 -3 -12 6.2421 4.5478
-14 -3 -11 1.5291 6.1657
-14 -3 -10 -1.1404 -1.0099
-14 -3 -9 4.9771 2.2169
-14 -3 -8 -0.2102 12.1109
-14 -3 -7 0.5512 1.5335
-14 -3 -6 1.7027 1.2010
-14 -3 -5 1.9506 0.2635
-14 -3 -4 4.9795 -3.5564
-14 -3 -3 -2.3232 2.2586
-14 -3 -2 0.0318 -1.7927
-14 -3 -1 1.2663 4.5393
-14 -2 -22 -7.5897 -3.5531
-14 -2 -21 2.6164 -3.7228
-14 -2 -20 4.1092 -3.7048
-14 -2 -19 -9.6398 -4.9474
-14 -2 -18 3.0503 -8.9963
-14 -2 -17 2.7154 -0.1731
-14 -2 -16 -3.2973 5.0137
-14 -2 -15 -2.3317 8.8267
-14 -2 -14 -5.9458 -0.0645
-14 -2 -13 -1.9074 -0.7469
-14 -2 -12 -0.9173 -4.9380
-14 -2 -11 0.0930 -1.8030
-14 -2 -10 5.6610 -4.0732
-14 -2 -9 1.8614 -5.1962
-14 -2 -8 6.6283 -2.5809
-14 -2 -7 1.9205 1.5691
-14 -2 -6 1.2478 -3.8099
-14 -2 -5 -0.3810 -3.1250
-14 -2 -4 3.1835 6.0527
-14 -2 -3 -1.5746 -1.0549
-14 -2 -2 3.8545 -4.1081
-14 -2 -1 -3.4488 -3.7441
-14 -1 -22 -3.8754 1.7981
-14 -1 -21 -3.5368 5.8193
-14 -1 -20 2.9918 6.8829
-14 -1 -19 4.4183 1.1251
-14 -1 -18 -1.6983 -7.2819
-14 -1 -17 4.3466 -5.4247
-14 -1 -16 -0.9198 -0.1429
-14 -1 -15 -0.5843 5.3625
-14 -1 -14 6.2072 1.4799
-14 -1 -13 -1.0654 1.8371
-14 -1 -12 -3.4418 -0.2025
-14 -1 -11 -2.8795 -1.4224
-14 -1 -10 -5.2746 1.2194
-14 -1 -9 -4.4702 -6.3905
-14 -1 -8 -4.0694 -0.8731
-14 -1 -7 -5.3380 5.4994
-14 -1 -6 -4.5435 1.6325
-14 -1 -5 3.8341 -2.3578
-14 -1 -4 -3.7013 3.5541
-14 -1 -3 4.4308 -0.8641
-14 -1 -2 4.3484 5.0690
-14 -1 -1 -6.2436 -2.7176
-13 -12 -17 -4.9456 -0.3153
-13 -12 -16 -0.7638 -1.8604
-13 -12 -15 2.3853 -1.5133
-13 -12 -14 -0.9289 2.1801
-13 -12 -13 -7.0817 -2.9756
-13 -12 -12 2.8110 0.0898
-13 -12 -11 5.9041 2.4390
-13 -12 -10 -0.1563 -1.6986
-13 -12 -9 -6.4818 -1.4933
-13 -12 -8 -4.1147 8.2404
-13 -12 -7 -2.3307 -4.6690
-13 -12 -6 0.5217 -5.3544
-13 -12 -5 2.3225 -4.4064
-13 -12 -4 1.5574 -2.1628
-13 -12 -3 -4.5737 0.2918
-13 -12 -2 -5.1544 -0.0773
-13 -12 -1 -11.2738 3.1123
-13 -11 -18 4.3146 1.5736
-13 -11 -17 -0.1535 3.7244
-13 -11 -16 -1.6104 4.6265
-13 -11 -15 2.6592 -0.2039
-13 -11 -14 0.3576 6.0014
-13 -11 -13 2.9871 0.4881
-13 -11 -12 -4.2813 -5.5798
-13 -11 -11 6.9856 4.8353
-13 -11 -10 0.2805 -3.4656
-13 -11 -9 0.3789 -3.5758
-13 -11 -8 1.3106 6.3836
-13 -11 -7 3.7212 8.9586
-13 -11 -6 4.6127 2.6799
-13 -11 -5 1.0988 -1.2864
-13 -11 -4 3.6528 -9.6766
-13 -11 -3 5.8261 -2.9654
-13 -11 -2 0.3064 1.5922
-13 -11 -1 -0.6015 -4.5483
-13 -10 -19 -4.3362 0.5242
-13 -10 -18 -4.3184 -4.1003
-13 -10 -17 3.2468 -1.8503
-13 -10 -16 -1.3392 6.8125
-13 -10 -15 10.6465 0.6884
-13 -10 -14 0.3270 -4.1965
-13 -10 -13 6.3705 5.0367
-13 -10 -12 -0.5969 -8.6453
-13 -10 -11 -0.7829 0.1752
-13 -10 -10 0.7253 4.0058
-13 -10 -9 -0.2919 -7.8303
-13 -10 -8 -3.4066 -0.9988
-13 -10 -7 -3.9102 -3.9709
-13 -10 -6 -1.8374 2.3094
-13 -10 -5 -0.1670 1.6455
-13 -10 -4 -4.4823 0.5387
-13 -10 -3 -1.1653 -5.2006
-13 -10 -2 1.1168 4.4048
-13 -10 -1 5.3135 -0.2613
-13 -9 -20 1.7734 -0.9161
-13 -9 -19 0.2364 3.0186
-13 -9 -18 -4.4637 2.9916
-13 -9 -17 -0.4219 -4.2491
-13 -9 -16 -4.0700 -3.4975
-13 -9 -15 -1.0697 3.6944
-13 -9 -14 6.0950 -10.7111
-13 -9 -13 -5.1358 -0.4329
-13 -9 -12 2.0261 -3.1473
-13 -9 -11 -6.4761 -6.0147
-13 -9 -10 1.1996 1.4172
-13 -9 -9 4.2302 1.7591
-13 -9 -8 -2.2167 -0.9042
-13 -9 -7 -2.8117 3.7131
-13 -9 -6 -1.5201 1.0798
-13 -9 -5 -5.1444 6.7648
-13 -9 -4 1.0900 -1.4119
-13 -9 -3 2.1992 3.1521
-13 -9 -2 -2.7785 -4.8081
-13 -9 -1 -0.3146 1.7498
-13 -8 -21 4.9884 1.1546
-13 -8 -20 -0.7373 -3.3900
-13 -8 -19 4.7335 0.6820
-13 -8 -18 -0.1353 2.7851
-13 -8 -17 -0.1684 4.8159
-13 -8 -16 -1.8590 -5.6188
-13 -8 -15 -6.8301 2.0016
-13 -8 -14 -0.9495 4.3383
-13 -8 -13 -3.6469 -2.9434
-13 -8 -12 1.0145 8.7211
-13 -8 -11 2.5820 -3.1935
-13 -8 -10 -1.0578 -4.2654
-13 -8 -9 -2.1629 -3.6637
-13 -8 -8 2.8318 -10.8533
-13 -8 -7 0.5776 -0.1322
-13 -8 -6 1.5911 3.9285
-13 -8 -5 -4.0759 -0.8946
-13 -8 -4 -2.3023 3.4674
-13 -8 -3 2.2395 -1.3733
-13 -8 -2 3.7293 0.6522
-13 -8 -1 2.7973 -0.7765
-13 -7 -22 -6.8968 -2.5177
-13 -7 -21 1.7997 1.5675
-13 -7 -20 0.9382 -1.6267
-13 -7 -19 -2.5196 -1.6897
-13 -7 -18 5.2131 2.8123
-13 -7 -17 -0.4801 3.9333
-13 -7 -16 9.1313 4.7292
-13 -7 -15 -4.3512 -6.2679
-13 -7 -14 0.2582 4.3939
-13 -7 -13 -1.0749 -0.3215
-13 -7 -12 1.7193 2.2340
-13 -7 -11 3.0905 10.1606
-13 -7 -10 0.1495 -2.6079
-13 -7 -9 -6.4362 1.4349
-13 -7 -8 -0.7919 3.7623
-13 -7 -7 -4.1337 -3.6116
-13 -7 -6 0.1358 -0.4912
-13 -7 -5 4.8706 -0.6639
-13 -7 -4 -3.0320 3.5102
-13 -7 -3 -3.2464 4.0606
-13 -7 -2 -0.9503 -3.3272
-13 -7 -1 3.6189 -0.2115
-13 -6 -22 2.5132 -2.2768
-13 -6 -21 -3.2337 -1.8014
-13 -6 -20 -4.3008 1.5754
-13 -6 -19 -3.9863 -3.6666
-13 -6 -18 -0.7970 -0.1176
-13 -6 -17 1.9849 1.2140
-13 -6 -16 -4.4475 8.0852
-13 -6 -15 8.0607 -4.8979
-13 -6 -14 -4.5626 0.1677
-13 -6 -13 1.6641 -0.1967
-13 -6 -12 3.2616 -9.8925
-13 -6 -11 -2.2964 3.9111
-13 -6 -10 7.0282 -0.7320
-13 -6 -9 5.4184 -0.1245
-13 -6 -8 -3.8895 5.7300
-13 -6 -7 5.7050 2.2704
-13 -6 -6 -3.3180 0.2215
-13 -6 -5 -5.0797 -0.3193
-13 -6 -4 1.1421 2.6251
-13 -6 -3 0.6554 10.2616
-13 -6 -2 3.1753 3.7588
-13 -6 -1 -1.6508 -1.1516
-13 -5 -22 3.5500 -1.7705
-13 -5 -21 5.4080 -2.8920
-13 -5 -20 -4.5075 -1.3883
-13 -5 -19 -2.6200 2.8596
-13 -5 -18 1.9216 -6.0899
-13 -5 -17 0.8667 2.6990
-13 -5 -16 -10.7641 -1.7837
-13 -5 -15 6.9308 10.3611
-13 -5 -14 0.2461 -5.4644
-13 -5 -13 -6.5091 6.8653
-13 -5 -12 -2.7445 -2.2923
-13 -5 -11 -4.3673 -9.5576
-13 -5 -10 -1.0723 5.3472
-13 -5 -9 -0.7625 -4.7452
-13 -5 -8 -1.6644 -7.2529
-13 -5 -7 2.3606 1.9079
-13 -5 -6 7.2025 -0.0197
-13 -5 -5 -1.5289 -2.2814
-13 -5 -4 -5.8122 1.0027
-13 -5 -3 5.3818 1.2172
-13 -5 -2 4.4226 5.9215
-13 -5 -1 2.9688 3.6769
-13 -4 -23 1.8441 -1.4194
-13 -4 -22 -3.1862 2.0092
-13 -4 -21 3.5759 -0.0892
-13 -4 -20 9.7752 -4.2433
-13 -4 -19 0.0949 0.4893
-13 -4 -18 2.5309 -3.3799
-13 -4 -17 0.4129 -0.4726
-13 -4 -16 -2.6568 -5.6183
-13 -4 -15 -5.3614 2.8229
-13 -4 -14 5.7805 1.6140
-13 -4 -13 -4.4288 -0.2951
-13 -4 -12 1.1776 15.1290
-13 -4 -11 0.6174 -6.7523
-13 -4 -10 1.1353 1.7474
-13 -4 -9 -4.5304 5.0092
-13 -4 -8 -1.4824 3.5905
-13 -4 -7 -4.0031 -2.5064
-13 -4 -6 1.7400 0.2059
-13 -4 -5 4.1093 -2.6564
-13 -4 -4 -1.7366 -7.4451
-13 -4 -3 2.7066 0.8302
-13 -4 -2 1.5350 -5.6487
-13 -4 -1 -1.4911 -0.8282
-13 -3 -22 -0.0892 -6.8550
-13 -3 -21 -6.2247 -1.1404
-13 -3 -20 -2.9469 -3.8920
-13 -3 -19 0.3013 -4.6960
-13 -3 -18 7.6871 -0.4655
-13 -3 -17 2.4633 2.1527
-13 -3 -16 4.1805 -0.3792
-13 -3 -15 -2.2259 -5.7725
-13 -3 -14 1.6750 1.6255
-13 -3 -13 0.8010 -3.7301
-13 -3 -12 -2.7492 5.7144
-13 -3 -11 2.4165 -0.4395
-13 -3 -10 1.4979 -6.4463
-13 -3 -9 6.7384 -0.3738
-13 -3 -8 -2.4345 2.6628
-13 -3 -7 9.1362 -2.6973
-13 -3 -6 -3.2522 -0.6077
-13 -3 -5 -6.5279 -1.0448
-13 -3 -4 -1.5403 -2.3730
-13 -3 -3 -6.9897 -1.9384
-13 -3 -2 2.7018 -0.0376
-13 -3 -1 -5.5577 -5.7455
-13 -2 -23 -4.6804 6.7730
-13 -2 -22 1.6202 3.8833
-13 -2 -21 -2.5748 4.1218
-13 -2 -20 -9.7380 8.3158
-13 -2 -19 -8.0954 -4.1869
-13 -2 -18 1.8990 0.5316
-13 -2 -17 -4.8327 2.6733
-13 -2 -16 0.4310 6.1597
-13 -2 -15 3.9186 -0.8971
-13 -2 -14 6.9352 -0.1695
-13 -2 -13 1.5640 0.0414
-13 -2 -12 -2.2371 -0.9660
-13 -2 -11 0.6901 4.3012
-13 -2 -10 -3.2916 -0.9132
-13 -2 -9 2.1870 -1.9673
-13 -2 -8 -4.9774 -4.2340
-13 -2 -7 -2.7634 0.7577
-13 -2 -6 6.4333 -1.3960
-13 -2 -5 0.5690 5.0688
-13 -2 -4 0.1660 6.0550
-13 -2 -3 0.9754 -1.3642
-13 -2 -2 -3.4607 2.6902
-13 -2 -1 -3.1119 -0.7805
-13 -1 -23 2.2408 -1.6805
-13 -1 -22 1.7751 5.3390
-13 -1 -21 9.6410 1.5029
-13 -1 -20 6.0662 -1.0396
-13 -1 -19 0.2876 -2.1222
-13 -1 -18 -0.1299 -2.1431
-13 -1 -17 -0.1436 -1.1808
-13 -1 -16 -2.6849 5.5694
-13 -1 -15 1.7146 -2.5437
-13 -1 -14 -0.5748 -2.8307
-13 -1 -13 -0.7926 -2.9209
-13 -1 -12 -0.4832 0.2618
-13 -1 -11 0.1039 4.5382
-13 -1 -10 -1.4729 -0.3156
-13 -1 -9 -0.1551 7.7229
-13 -1 -8 2.1669 1.3987
-13 -1 -7 -1.6345 2.9638
-13 -1 -6 4.1840 -1.8245
-13 -1 -5 7.2037 -3.1807
-13 -1 -4 1.4330 -2.7681
-13 -1 -3 8.0852 1.3529
-13 -1 -2 -0.1522 2.8504
-13 -1 -1 -0.2061 -0.1396
-12 -11 -19 -0.8768 -5.5588
-12 -11 -18 0.4279 0.9074
-12 -11 -17 2.7609 -0.1554
-12 -11 -16 5.8563 -4.3110
-12 -11 -15 1.4020 2.6321
-12 -11 -14 4.3485 0.7832
-12 -11 -13 -0.5196 0.5090
-12 -11 -12 -0.2987 -6.1043
-12 -11 -11 -4.8473 5.8293
-12 -11 -10 -3.9224 -3.8422
-12 -11 -9 -3.7052 -1.1042
-12 -11 -8 0.6402 2.7050
-12 -11 -7 3.6339 -1.1857
-12 -11 -6 -1.2516 -2.0321
-12 -11 -5 1.6693 -3.7738
-12 -11 -4 -3.6786 -7.2541
-12 -11 -3 -6.7651 3.1105
-12 -11 -2 -1.8033 -4.8826
-12 -11 -1 -2.5685 2.8824
-12 -10 -20 -7.4350 4.5372
-12 -10 -19 0.4625 0.9358
-12 -10 -18 -3.9165 -2.0924
-12 -10 -17 2.1893 4.1108
-12 -10 -16 5.0346 -1.9880
-12 -10 -15 2.1521 -6.2944
-12 -10 -14 2.5386 -2.7320
-12 -10 -13 -1.7418 0.2738
-12 -10 -12 3.0442 -0.9130
-12 -10 -11 -0.5037 -0.1248
-12 -10 -10 2.7339 4.7543
-12 -10 -9 -2.0341 3.1272
-12 -10 -8 -4.8904 2.2761
-12 -10 -7 -1.0841 2.4242
-12 -10 -6 2.4744 -0.1297
-12 -10 -5 2.3165 5.2031
-12 -10 -4 -0.0730 0.0863
-12 -10 -3 -2.5084 4.3388
-12 -10 -2 4.4834 2.6344
-12 -10 -1 -0.1743 -4.3739
-12 -9 -21 -1.6761 2.0552
-12 -9 -20 0.6522 -4.1794
-12 -9 -19 0.5196 11.2146
-12 -9 -18 -0.6737 -4.2806
-12 -9 -17 -3.1999 -0.2951
-12 -9 -16 -0.6745 0.6566
-12 -9 -15 -3.7293 -5.2043
-12 -9 -14 -1.0945 0.3583
-12 -9 -13 -2.1585 -3.4371
-12 -9 -12 -3.4860 4.6451
-12 -9 -11 0.1925 -0.9227
-12 -9 -10 3.6533 0.3466
-12 -9 -9 2.4991 -2.3698
-12 -9 -8 -0.7148 5.6621
-12 -9 -7 0.3266 0.5692
-12 -9 -6 -0.8759 3.7280
-12 -9 -5 -0.0219 -3.0725
-12 -9 -4 7.0415 -0.4583
-12 -9 -3 -3.4561 -1.0094
-12 -9 -2 2.1525 3.1978
-12 -9 -1 -2.7387 4.3312
-12 -8 -22 7.2847 0.0900
-12 -8 -21 -5.3369 -1.2421
-12 -8 -20 3.1578 -4.6131
-12 -8 -19 -1.9131 2.0822
-12 -8 -18 6.3173 1.2813
-12 -8 -17 -5.9943 -1.9688
-12 -8 -16 0.3569 6.2848
-12 -8 -15 2.2502 3.1533
-12 -8 -14 -5.4125 3.9087
-12 -8 -13 4.7047 -3.1582
-12 -8 -12 3.7821 -5.0931
-12 -8 -11 -1.9533 -2.6758
-12 -8 -10 -6.0317 -0.4406
-12 -8 -9 -1.7831 -5.3989
-12 -8 -8 -1.8793 1.6556
-12 -8 -7 3.4436 6.3779
-12 -8 -6 -2.0046 -0.5622
-12 -8 -5 1.6685 4.6176
-12 -8 -4 1.1078 0.1214
-12 -8 -3 -0.6167 -5.7655
-12 -8 -2 -0.6868 -4.5713
-12 -8 -1 0.0892 -1.1115
-12 -7 -22 4.7687 0.3270
-12 -7 -21 5.0397 3.2826
-12 -7 -20 -3.7849 0.8013
-12 -7 -19 0.8417 -6.0199
-12 -7 -18 3.1787 6.1315
-12 -7 -17 5.6461 -9.0812
-12 -7 -16 -3.2592 -3.1772
-12 -7 -15 7.5185 -2.1431
-12 -7 -14 -2.7844 4.0079
-12 -7 -13 -2.5891 0.3848
-12 -7 -12 -0.0585 4.3766
-12 -7 -11 -0.5488 -4.9378
-12 -7 -10 -0.9164 -0.1798
-12 -7 -9 1.4059 2.1301
-12 -7 -8 -3.1557 -0.0435
-12 -7 -7 1.5188 -0.2319
-12 -7 -6 5.3842 -7.2514
-12 -7 -5 -0.4040 2.1227
-12 -7 -4 1.3915 8.9039
-12 -7 -3 -0.8280 0.3709
-12 -7 -2 -2.1864 -2.5206
-12 -7 -1 -2.8970 -2.7216
-12 -6 -23 -1.7869 -6.5649
-12 -6 -22 -0.8255 -0.9076
-12 -6 -21 -2.6620 -0.6858
-12 -6 -20 -2.9591 2.7656
-12 -6 -19 2.3651 0.2779
-12 -6 -18 -0.5412 3.0739
-12 -6 -17 -3.3268 6.7181
-12 -6 -16 -2.3362 -9.0453
-12 -6 -15 -0.4675 1.5003
-12 -6 -14 -0.7092 -1.1606
-12 -6 -13 3.6124 4.0312
-12 -6 -12 -0.2726 2.8076
-12 -6 -11 0.4731 2.0745
-12 -6 -10 3.1803 -3.1212
-12 -6 -9 -0.5253 0.9489
-12 -6 -8 -1.0868 -5.1476
-12 -6 -7 -1.8558 4.2220
-12 -6 -6 -0.8183 -2.2393
-12 -6 -5 -0.5514 -5.3257
-12 -6 -4 7.0014 5.4202
-12 -6 -3 9.4395 4.6172
-12 -6 -2 5.9228 -0.3452
-12 -6 -1 -2.4036 0.6904
-12 -5 -23 -0.3038 -2.8836
-12 -5 -22 -4.8729 -1.1178
-12 -5 -21 -3.4364 3.2485
-12 -5 -20 -5.9697 2.5158
-12 -5 -19 2.9676 0.7181
-12 -5 -18 5.9862 1.6161
-12 -5 -17 -4.7820 1.6144
-12 -5 -16 7.2648 7.4544
-12 -5 -15 0.7554 3.0248
-12 -5 -14 2.8024 -3.9668
-12 -5 -13 -0.6058 3.5568
-12 -5 -12 2.9771 -3.7627
-12 -5 -11 5.2360 2.5942
-12 -5 -10 -4.8393 1.6664
-12 -5 -9 -0.0099 0.0294
-12 -5 -8 1.9235 -0.4020
-12 -5 -7 -0.6688 1.4843
-12 -5 -6 -0.2326 1.6418
-12 -5 -5 -6.4824 -1.9856
-12 -5 -4 1.1571 -3.6114
-12 -5 -3 4.6013 -0.9737
-12 -5 -2 4.2576 -1.0842
-12 -5 -1 1.1016 -2.2555
-12 -4 -24 0.1639 -1.0134
-12 -4 -23 3.2731 2.2595
-12 -4 -22 2.8103 -7.2195
-12 -4 -21 7.3303 -3.5457
-12 -4 -20 0.2767 -4.9002
-12 -4 -19 -6.7820 -2.8701
-12 -4 -18 -5.5788 -1.1575
-12 -4 -17 -0.0355 -5.6001
-12 -4 -16 0.5213 -1.8421
-12 -4 -15 2.3164 2.2004
-12 -4 -14 -2.8769 0.3489
-12 -4 -13 3.3734 0.7604
-12 -4 -12 -1.7213 -0.1415
-12 -4 -11 0.6761 -4.0510
-12 -4 -10 -0.2144 2.0026
-12 -4 -9 -2.4849 2.3093
-12 -4 -8 4.8470 0.6667
-12 -4 -7 -0.0664 -1.5670
-12 -4 -6 3.4303 -0.1743
-12 -4 -5 -1.4538 -1.3492
-12 -4 -4 -2.8779 2.3890
-12 -4 -3 0.5570 -4.0347
-12 -4 -2 -2.2906 0.2213
-12 -4 -1 2.6421 -1.0504
-12 -3 -23 -7.3962 -1.8783
-12 -3 -22 -0.2721 -2.5351
-12 -3 -21 -10.1163 -3.7827
-12 -3 -20 2.3941 -0.7451
-12 -3 -19 0.4314 -2.2426
-12 -3 -18 -1.7759 3.7196
-12 -3 -17 -8.8751 0.1614
-12 -3 -16 -1.2588 -9.0561
-12 -3 -15 3.7001 -2.9208
-12 -3 -14 -4.6533 -0.9059
-12 -3 -13 -1.7438 3.0855
-12 -3 -12 4.9258 1.2832
-12 -3 -11 -1.8921 -0.6805
-12 -3 -10 0.1285 -1.7851
-12 -3 -9 -1.1190 2.3604
-12 -3 -8 -1.3811 -4.6569
-12 -3 -7 -2.3993 -4.0591
-12 -3 -6 -6.9747 0.9086
-12 -3 -5 -1.0349 -1.1903
-12 -3 -4 -5.0203 5.2073
-12 -3 -3 0.1817 2.1205
-12 -3 -2 -0.1278 -0.5119
-12 -3 -1 3.7098 7.6728
-12 -2 -23 1.6469 2.5694
-12 -2 -22 1.0750 11.1426
-12 -2 -21 1.5462 2.5559
-12 -2 -20 -7.2024 3.8843
-12 -2 -19 8.4585 -1.7141
-12 -2 -18 1.9160 8.3527
-12 -2 -17 -3.7921 2.7962
-12 -2 -16 -1.1955 2.4444
-12 -2 -15 3.3758 -4.4833
-12 -2 -14 2.3641 -2.3128
-12 -2 -13 -6.8918 -6.2259
-12 -2 -12 2.1340 3.2649
-12 -2 -11 1.5638 -1.5028
-12 -2 -10 0.9866 -0.6473
-12 -2 -9 -5.7207 0.6115
-12 -2 -8 0.4528 4.5690
-12 -2 -7 1.1881 -0.3739
-12 -2 -6 -0.0558 2.1342
-12 -2 -5 2.0517 -1.5763
-12 -2 -4 0.0676 -2.0549
-12 -2 -3 -0.1393 -0.3322
-12 -2 -2 -0.0012 -7.7796
-12 -2 -1 0.1234 -0.0209
-12 -1 -24 4.2411 0.1560
-12 -1 -23 6.1903 3.0694
-12 -1 -22 1.5969 -2.8041
-12 -1 -21 8.3790 2.2874
-12 -1 -20 -2.2537 -6.4103
-12 -1 -19 -2.8111 3.4956
-12 -1 -18 0.5106 0.3149
-12 -1 -17 5.8489 3.0187
-12 -1 -16 -4.4757 1.7780
-12 -1 -15 -0.0088 -1.1490
-12 -1 -14 -2.5609 0.7428
-12 -1 -13 3.1970 2.1641
-12 -1 -12 -1.5314 1.6501
-12 -1 -11 2.1338 0.8790
-12 -1 -10 4.2905 3.7422
-12 -1 -9 1.6571 -0.6543
-12 -1 -8 4.6986 0.5758
-12 -1 -7 3.5150 0.9010
-12 -1 -6 -0.3957 -7.1370
-12 -1 -5 0.8206 0.4504
-12 -1 -4 -3.3259 -4.0259
-12 -1 -3 -2.1085 3.3911
-12 -1 -2 -2.5592 -3.5873
-12 -1 -1 -5.2260 -11.6349
-11 -10 -21 -5.2259 0.4803
-11 -10 -20 0.7833 -0.6220
-11 -10 -19 4.8568 1.9644
-11 -10 -18 3.4948 -4.4061
-11 -10 -17 4.7879 2.5628
-11 -10 -16 -3.7078 -1.8773
-11 -10 -15 -1.3572 -2.9886
-11 -10 -14 -6.7635 -3.6223
-11 -10 -13 -2.8767 -3.3622
-11 -10 -12 -3.4968 -8.7311
-11 -10 -11 4.1296 -0.7752
-11 -10 -10 0.5805 4.4243
-11 -10 -9 -3.2602 0.2075
-11 -10 -8 2.7929 0.0163
-11 -10 -7 0.0080 -6.5209
-11 -10 -6 3.8053 1.3645
-11 -10 -5 2.9755 -1.7878
-11 -10 -4 -0.5382 0.7979
-11 -10 -3 3.4458 -2.2585
-11 -10 -2 2.4066 -2.4030
-11 -10 -1 0.8291 -4.5086
-11 -9 -22 -4.7325 9.4874
-11 -9 -21 -4.0121 -8.4311
-11 -9 -20 0.5826 6.1020
-11 -9 -19 -2.7377 -0.6294
-11 -9 -18 2.7657 -7.1166
-11 -9 -17 -0.4160 -1.7513
-11 -9 -16 -3.4029 1.2281
-11 -9 -15 -4.4007 8.2615
-11 -9 -14 0.1026 5.5255
-11 -9 -13 0.5145 5.3513
-11 -9 -12 -4.1744 1.7602
-11 -9 -11 -0.0599 -1.7580
-11 -9 -10 2.8397 -2.5927
-11 -9 -9 -0.6036 2.6283
-11 -9 -8 -0.9895 2.8258
-11 -9 -7 3.5766 0.6155
-11 -9 -6 -3.7459 -3.8913
-11 -9 -5 4.5340 -0.9167
-11 -9 -4 -1.3471 1.0491
-11 -9 -3 1.2571 -1.4675
-11 -9 -2 2.2579 -0.2335
-11 -9 -1 2.8610 -0.9821
-11 -8 -23 10.3836 -1.4857
-11 -8 -22 -8.4392 7.3058
-11 -8 -21 0.6445 1.5157
-11 -8 -20 -5.1115 -1.6565
-11 -8 -19 0.6024 0.0764
-11 -8 -18 -5.2597 -0.7914
-11 -8 -17 0.2019 0.2873
-11 -8 -16 9.0315 0.1828
-11 -8 -15 0.9119 2.2247
-11 -8 -14 -1.3958 -0.7653
-11 -8 -13 8.8168 -1.9217
-11 -8 -12 0.4194 0.0447
-11 -8 -11 -7.5891 0.6292
-11 -8 -10 -0.3735 1.4902
-11 -8 -9 1.3051 1.9816
-11 -8 -8 2.3882 1.4049
-11 -8 -7 0.1172 -0.1369
-11 -8 -6 1.8074 -3.8383
-11 -8 -5 0.8399 -1.6904
-11 -8 -4 -1.9973 -0.8450
-11 -8 -3 -6.0939 -1.8009
-11 -8 -2 -1.1848 -2.7141
-11 -8 -1 -3.5759 2.5881
-11 -7 -23 9.5155 0.6472
-11 -7 -22 14.1573 -4.7820
-11 -7 -21 -7.2961 8.7211
-11 -7 -20 -4.1571 -5.9118
-11 -7 -19 1.7647 4.7062
-11 -7 -18 -3.8422 -2.2217
-11 -7 -17 -6.1710 -4.7211
-11 -7 -16 1.7661 -2.5019
-11 -7 -15 1.8119 -1.7343
-11 -7 -14 -4.6335 -2.7632
-11 -7 -13 -1.4286 4.7309
-11 -7 -12 0.0612 -1.5314
-11 -7 -11 4.7665 -2.8220
-11 -7 -10 -2.3220 -0.2595
-11 -7 -9 -0.2785 1.0880
-11 -7 -8 -0.0799 0.6420
-11 -7 -7 -0.7542 -3.6722
-11 -7 -6 -2.2362 -1.0861
-11 -7 -5 -3.0444 3.3421
-11 -7 -4 2.2102 -0.2196
-11 -7 -3 1.6407 -0.8303
-11 -7 -2 -2.2448 0.4170
-11 -7 -1 -3.4655 0.0573
-11 -6 -23 -4.2457 -2.9069
-11 -6 -22 3.4383 4.7815
-11 -6 -21 -0.2621 0.9898
-11 -6 -20 2.3685 6.9832
-11 -6 -19 0.7910 2.1516
-11 -6 -18 1.5012 3.8768
-11 -6 -17 -5.5669 -4.0168
-11 -6 -16 0.6634 4.1096
-11 -6 -15 -1.4323 -0.7786
-11 -6 -14 6.8272 0.2018
-11 -6 -13 -0.9306 -1.2630
-11 -6 -12 0.6942 -3.9412
-11 -6 -11 -1.6050 0.1546
-11 -6 -10 -2.3523 -2.4488
-11 -6 -9 -6.4234 -3.4185
-11 -6 -8 0.4155 4.0457
-11 -6 -7 -0.9756 1.3202
-11 -6 -6 -0.2064 1.0704
-11 -6 -5 -1.7689 -3.8747
-11 -6 -4 0.0069 1.4815
-11 -6 -3 1.9185 -5.5618
-11 -6 -2 -4.3517 -0.2130
-11 -6 -1 -4.4990 -3.0329
-11 -5 -24 1.3551 0.5838
-11 -5 -23 -4.1456 -1.0372
-11 -5 -22 2.4308 4.1411
-11 -5 -21 6.7865 5.5705
-11 -5 -20 5.4296 3.3558
-11 -5 -19 4.2036 1.0914
-11 -5 -18 -3.1193 -0.0661
-11 -5 -17 3.1899 -1.5667
-11 -5 -16 -2.5384 5.3293
-11 -5 -15 1.7830 -5.3122
-11 -5 -14 -1.4749 -0.9562
-11 -5 -13 -0.5128 -0.4246
-11 -5 -12 4.2722 -2.9208
-11 -5 -11 -3.7489 1.5295
-11 -5 -10 0.0978 3.6660
-11 -5 -9 0.0569 2.1590
-11 -5 -8 1.0259 2.9411
-11 -5 -7 3.0239 1.8354
-11 -5 -6 -3.5481 2.4560
-11 -5 -5 4.8641 0.5897
-11 -5 -4 -0.9656 -1.1481
-11 -5 -3 -0.1379 1.9587
-11 -5 -2 -2.7586 -0.6832
-11 -5 -1 -4.0248 3.9076
-11 -4 -24 -0.5754 -0.4208
-11 -4 -23 -3.8828 -8.4079
-11 -4 -22 2.4213 -11.5681
-11 -4 -21 -1.1408 -6.3865
-11 -4 -20 -5.4060 1.4812
-11 -4 -19 -1.8888 8.9177
-11 -4 -18 0.9269 4.1304
-11 -4 -17 3.8584 2.0357
-11 -4 -16 -1.8149 1.6525
-11 -4 -15 -1.6741 6.4835
-11 -4 -14 2.0946 -2.9262
-11 -4 -13 0.9972 3.8774
-11 -4 -12 -0.5119 0.6197
-11 -4 -11 4.4339 -3.1663
-11 -4 -10 3.8682 3.9254
-11 -4 -9 6.3686 -3.1065
-11 -4 -8 0.1163 -0.1799
-11 -4 -7 3.0477 0.2737
-11 -4 -6 2.4607 -3.4508
-11 -4 -5 -1.1462 5.7644
-11 -4 -4 2.1617 -6.9641
-11 -4 -3 1.7828 -1.4960
-11 -4 -2 1.0769 0.4359
-11 -4 -1 -3.2548 -0.7364
-11 -3 -25 2.9512 3.2738
-11 -3 -24 -3.5080 0.3542
-11 -3 -23 -3.6848 -2.1890
-11 -3 -22 -9.9431 6.1281
-11 -3 -21 1.8117 -5.2701
-11 -3 -20 0.3263 -1.5714
-11 -3 -19 3.4422 0.9958
-11 -3 -18 -1.9679 7.1035
-11 -3 -17 0.3399 -3.1882
-11 -3 -16 3.8094 -3.9365
-11 -3 -15 -5.1352 4.7474
-11 -3 -14 -1.1491 0.1082
-11 -3 -13 0.4491 -0.7298
-11 -3 -12 0.2590 0.0808
-11 -3 -11 -2.6161 -4.6990
-11 -3 -10 0.1957 -5.1081
-11 -3 -9 1.9294 -0.8424
-11 -3 -8 -3.2839 -7.2201
-11 -3 -7 -4.6187 4.5380
-11 -3 -6 2.6106 4.4494
-11 -3 -5 -1.6592 5.1775
-11 -3 -4 1.2815 6.7501
-11 -3 -3 3.0289 -5.2332
-11 -3 -2 5.0611 5.3468
-11 -3 -1 1.6547 -0.7476
-11 -2 -25 3.2497 6.7051
-11 -2 -24 6.3074 0.1945
-11 -2 -23 6.5989 -0.9308
-11 -2 -22 -0.5042 -3.0554
-11 -2 -21 2.4191 3.2042
-11 -2 -20 2.5247 -8.7332
-11 -2 -19 8.0624 1.5194
-11 -2 -18 -4.0953 -3.2261
-11 -2 -17 2.4130 3.2461
-11 -2 -16 3.7600 0.4642
-11 -2 -15 -1.0525 -3.7461
-11 -2 -14 -2.0419 1.7111
-11 -2 -13 -0.6085 -1.2818
-11 -2 -12 -3.7683 6.0541
-11 -2 -11 -1.5332 0.5399
-11 -2 -10 -9.5369 0.9285
-11 -2 -9 -1.2104 0.6814
-11 -2 -8 3.4049 1.4876
-11 -2 -7 -0.2661 -5.9348
-11 -2 -6 0.4761 0.1863
-11 -2 -5 1.7086 -2.9172
-11 -2 -4 -2.9726 4.6200
-11 -2 -3 0.4943 0.1723
-11 -2 -2 -6.6373 -4.7477
-11 -2 -1 -1.2008 5.0464
-11 -1 -25 0.7226 -1.3306
-11 -1 -24 3.3253 5.3776
-11 -1 -23 -5.2411 -6.6019
-11 -1 -22 -0.5154 -5.4785
-11 -1 -21 -6.6830 -2.1938
-11 -1 -20 1.3648 -3.0756
-11 -1 -19 -2.1800 2.5395
-11 -1 -18 9.0955 -6.8742
-11 -1 -17 -3.0468 -0.0800
-11 -1 -16 -1.5070 1.2405
-11 -1 -15 0.6722 -1.0498
-11 -1 -14 -2.5937 -0.1377
-11 -1 -13 5.2951 -1.0176
-11 -1 -12 1.2110 -3.4501
-11 -1 -11 4.4661 4.6246
-11 -1 -10 2.2124 -0.4781
-11 -1 -9 -0.0848 -1.6427
-11 -1 -8 1.2200 -1.1970
-11 -1 -7 -5.9106 -7.2166
-11 -1 -6 -0.8676 -3.8718
-11 -1 -5 -1.4053 0.0855
-11 -1 -4 0.9192 -4.3518
-11 -1 -3 3.4924 8.4956
-11 -1 -2 0.2554 -4.0281
-11 -1 -1 -5.8120 2.5452
-10 -9 -23 0.4312 6.0158
-10 -9 -22 -5.4196 -2.8683
-10 -9 -21 3.0566 2.8094
-10 -9 -20 -1.1998 5.0261
-10 -9 -19 2.1083 -7.1483
-10 -9 -18 -7.1157 -0.8800
-10 -9 -17 -1.3646 1.8689
-10 -9 -16 -1.6925 2.4618
-10 -9 -15 7.0981 7.2216
-10 -9 -14 10.5931 -4.0322
-10 -9 -13 0.0654 -0.0697
-10 -9 -12 1.9151 -4.7237
-10 -9 -11 -1.3578 -0.1767
-10 -9 -10 1.5545 5.8948
-10 -9 -9 0.1806 -0.3448
-10 -9 -8 0.4324 1.7776
-10 -9 -7 -1.7336 1.0836
-10 -9 -6 -0.0381 -2.8471
-10 -9 -5 -1.0887 5.2965
-10 -9 -4 -3.5020 0.4583
-10 -9 -3 1.4268 -1.2431
-10 -9 -2 -2.4715 -4.7246
-10 -9 -1 -0.9211 -1.2814
-10 -8 -23 4.2073 4.9393
-10 -8 -22 -0.1004 -1.3593
-10 -8 -21 -4.9137 -1.5504
-10 -8 -20 3.6824 0.5200
-10 -8 -19 1.4324 5.3213
-10 -8 -18 -2.1891 3.6969
-10 -8 -17 2.2111 6.3700
-10 -8 -16 1.9130 -2.2448
-10 -8 -15 -8.5123 -3.0456
-10 -8 -14 3.5225 -2.7006
-10 -8 -13 2.2386 -3.2365
-10 -8 -12 -4.3394 -1.5925
-10 -8 -11 -0.5841 -1.1210
-10 -8 -10 1.4340 5.2339
-10 -8 -9 3.8884 0.8650
-10 -8 -8 1.4642 0.0026
-10 -8 -7 -1.1214 0.2048
-10 -8 -6 -0.1079 -0.8625
-10 -8 -5 2.8500 4.7056
-10 -8 -4 -3.9459 3.8189
-10 -8 -3 -1.4705 2.4484
-10 -8 -2 2.5546 5.0984
-10 -8 -1 -6.0172 -0.2750
-10 -7 -23 4.9987 -8.8167
-10 -7 -22 -0.5990 4.1439
-10 -7 -21 -10.7121 -5.6585
-10 -7 -20 3.2585 0.8758
-10 -7 -19 9.5634 0.9411
-10 -7 -18 1.5336 -5.5657
-10 -7 -17 4.7450 3.6553
-10 -7 -16 1.1265 4.7631
-10 -7 -15 -0.6319 -1.0679
-10 -7 -14 -4.6187 6.4879
-10 -7 -13 -2.8057 4.7437
-10 -7 -12 7.4911 -4.8829
-10 -7 -11 -1.9254 -1.2777
-10 -7 -10 -1.5042 -3.4689
-10 -7 -9 2.4000 2.3270
-10 -7 -8 0.9898 -0.0495
-10 -7 -7 3.3944 2.4682
-10 -7 -6 -0.7371 0.9900
-10 -7 -5 -0.0258 2.3806
-10 -7 -4 10.1913 -1.0043
-10 -7 -3 -0.9276 0.8551
-10 -7 -2 -0.4519 2.9811
-10 -7 -1 4.1171 2.9911
-10 -6 -24 -6.7456 -0.1691
-10 -6 -23 -0.2157 4.8770
-10 -6 -22 -0.5597 1.6516
-10 -6 -21 4.5594 -0.5039
-10 -6 -20 -6.3664 -1.1563
-10 -6 -19 -0.0640 -3.2611
-10 -6 -18 0.4526 -9.2173
-10 -6 -17 -0.9326 -1.2210
-10 -6 -16 1.5637 0.3065
-10 -6 -15 4.1551 -2.2004
-10 -6 -14 2.7863 -1.9621
-10 -6 -13 -4.7663 -5.9510
-10 -6 -12 -1.7266 7.0965
-10 -6 -11 -4.3578 0.6679
-10 -6 -10 -5.0517 -1.2045
-10 -6 -9 3.1315 -0.1302
-10 -6 -8 1.0802 -2.7317
-10 -6 -7 3.1848 -0.8491
-10 -6 -6 2.6123 -2.2477
-10 -6 -5 -2.4514 -3.0933
-10 -6 -4 -1.1175 5.1219
-10 -6 -3 4.5862 -0.6358
-10 -6 -2 -3.2485 -0.1546
-10 -6 -1 8.3253 -0.5629
-10 -5 -25 4.2598 2.1644
-10 -5 -24 -0.6463 2.5805
-10 -5 -23 -1.2957 0.1016
-10 -5 -22 4.8064 1.4393
-10 -5 -21 3.7193 -1.4732
-10 -5 -20 -1.1238 -4.0129
-10 -5 -19 -3.9644 1.0428
-10 -5 -18 1.9329 0.1580
-10 -5 -17 -1.1719 0.7423
-10 -5 -16 3.4070 1.1860
-10 -5 -15 -2.4302 -2.5879
-10 -5 -14 -2.1809 2.1827
-10 -5 -13 3.8331 -3.7295
-10 -5 -12 -2.6010 -1.7466
-10 -5 -11 0.0861 4.8259
-10 -5 -10 0.0403 3.4772
-10 -5 -9 -1.7931 -0.9301
-10 -5 -8 1.5927 -3.0407
-10 -5 -7 -7.6740 -8.3165
-10 -5 -6 1.3236 -3.6326
-10 -5 -5 3.2456 -4.7471
-10 -5 -4 -4.8011 -2.5732
-10 -5 -3 -2.6770 3.6178
-10 -5 -2 -1.3775 -1.6448
-10 -5 -1 -3.6927 -0.1510
-10 -4 -25 1.6739 2.4308
-10 -4 -24 -2.5694 2.2519
-10 -4 -23 -1.4406 -1.2116
-10 -4 -22 -5.7847 3.7537
-10 -4 -21 -8.4104 8.1689
-10 -4 -20 0.4348 5.1495
-10 -4 -19 3.5362 3.8154
-10 -4 -18 5.1161 -3.4076
-10 -4 -17 1.6350 -6.8154
-10 -4 -16 -0.1640 0.8084
-10 -4 -15 8.1595 -2.7888
-10 -4 -14 -2.1891 0.8313
-10 -4 -13 -0.8141 3.1271
-10 -4 -12 2.3152 -5.1619
-10 -4 -11 3.7184 -3.1875
-10 -4 -10 -0.3578 1.3936
-10 -4 -9 -0.0419 -1.0370
-10 -4 -8 -5.8506 5.8756
-10 -4 -7 -1.4873 -0.8394
-10 -4 -6 -5.9203 -0.4138
-10 -4 -5 -5.7504 -0.5103
-10 -4 -4 3.7581 -8.6209
-10 -4 -3 -3.5315 4.9273
-10 -4 -2 -4.5051 1.9131
-10 -4 -1 -3.6352 -0.3134
-10 -3 -25 3.8569 -3.2851
-10 -3 -24 4.6927 -6.8663
-10 -3 -23 4.3123 9.6007
-10 -3 -22 4.1511 -0.4941
-10 -3 -21 5.5248 0.1425
-10 -3 -20 2.0184 1.2648
-10 -3 -19 0.9437 4.4277
-10 -3 -18 -2.4572 -0.0321
-10 -3 -17 -0.5132 -0.3142
-10 -3 -16 -5.1560 -2.4862
-10 -3 -15 0.1554 4.1838
-10 -3 -14 2.9579 -3.0352
-10 -3 -13 -1.4484 3.3178
-10 -3 -12 0.0378 1.5806
-10 -3 -11 -0.4400 -2.9874
-10 -3 -10 -0.2131 -1.8310
-10 -3 -9 -0.4818 4.8074
-10 -3 -8 2.2193 1.1377
-10 -3 -7 2.4174 11.2657
-10 -3 -6 4.2697 2.8899
-10 -3 -5 -1.3934 1.5456
-10 -3 -4 4.6276 -2.0724
-10 -3 -3 5.4319 -5.2390
-10 -3 -2 -0.9212 0.0441
-10 -3 -1 2.7515 -7.6986
-10 -2 -25 -1.5232 -2.7428
-10 -2 -24 2.7690 -12.1506
-10 -2 -23 -7.4313 -10.1028
-10 -2 -22 -1.2778 0.1391
-10 -2 -21 -2.5361 -5.1695
-10 -2 -20 1.4484 -4.7136
-10 -2 -19 -6.3865 -3.1342
-10 -2 -18 3.2759 -6.2107
-10 -2 -17 2.5709 6.1296
-10 -2 -16 1.9489 -0.3557
-10 -2 -15 -1.6996 -3.4603
-10 -2 -14 1.2366 0.4967
-10 -2 -13 -0.6333 0.1667
-10 -2 -12 -0.4839 1.5472
-10 -2 -11 0.2074 4.0870
-10 -2 -10 0.9275 -1.2716
-10 -2 -9 2.7726 1.8072
-10 -2 -8 5.3030 -2.6058
-10 -2 -7 1.2961 -2.4605
-10 -2 -6 -2.0452 4.7509
-10 -2 -5 1.6125 0.5173
-10 -2 -4 -0.3278 7.3886
-10 -2 -3 -3.1753 -2.4703
-10 -2 -2 -1.2640 1.6779
-10 -2 -1 -1.1444 4.8754
-10 -1 -25 -1.5353 5.7439
-10 -1 -24 -6.0909 5.2525
-10 -1 -23 -0.3796 -4.4323
-10 -1 -22 -5.9250 5.8491
-10 -1 -21 0.7760 3.6128
-10 -1 -20 0.0378 6.0173
-10 -1 -19 -7.8516 -0.5209
-10 -1 -18 -2.9338 -3.9047
-10 -1 -17 -9.3280 -6.3195
-10 -1 -16 1.1653 2.4810
-10 -1 -15 0.4121 0.6215
-10 -1 -14 -0.1026 -0.3314
-10 -1 -13 -1.1390 -0.2003
-10 -1 -12 -0.5268 -1.2770
-10 -1 -11 -0.5046 -2.4830
-10 -1 -10 1.3154 0.2308
-10 -1 -9 -5.5419 -6.6486
-10 -1 -8 -7.6963 -1.2182
-10 -1 -7 0.6142 -3.3491
-10 -1 -6 -1.4951 3.6262
-10 -1 -5 1.4520 -0.8748
-10 -1 -4 1.0708 2.0077
-10 -1 -3 -0.5152 -0.0053
-10 -1 -2 -2.7413 0.0862
-10 -1 -1 -2.3474 3.2060
-9 -8 -24 0.9943 -3.5544
-9 -8 -23 0.4338 4.2404
-9 -8 -22 -6.4414 -3.0402
-9 -8 -21 -1.4210 -4.1139
-9 -8 -20 1.0120 7.0776
-9 -8 -19 4.9315 0.9214
-9 -8 -18 3.1696 0.3428
-9 -8 -17 -1.2591 -5.8783
-9 -8 -16 0.1486 0.5306
-9 -8 -15 4.0265 -0.8972
-9 -8 -14 -4.1964 -1.2032
-9 -8 -13 -1.7018 3.7013
-9 -8 -12 1.5387 -1.5745
-9 -8 -11 -3.0098 0.5835
-9 -8 -10 3.9076 2.5123
-9 -8 -9 2.0729 -6.3732
-9 -8 -8 -3.7460 0.9519
-9 -8 -7 -2.5914 -2.6895
-9 -8 -6 0.9528 -1.9435
-9 -8 -5 -0.1009 -0.3966
-9 -8 -4 0.7775 -1.1175
-9 -8 -3 6.3182 3.2008
-9 -8 -2 -2.2925 4.6681
-9 -8 -1 -1.1062 4.3575
-9 -7 -24 -2.3574 -2.8544
-9 -7 -23 -2.9894 3.8027
-9 -7 -22 -3.5842 1.8566
-9 -7 -21 1.0657 -0.0924
-9 -7 -20 4.7343 -3.2114
-9 -7 -19 0.5774 0.7996
-9 -7 -18 -1.7028 -2.3627
-9 -7 -17 -4.2667 2.5210
-9 -7 -16 -5.1453 -7.2503
-9 -7 -15 5.0307 3.7944
-9 -7 -14 2.9099 -0.3754
-9 -7 -13 1.2940 -5.0116
-9 -7 -12 2.2108 3.6651
-9 -7 -11 -6.6693 -5.6943
-9 -7 -10 -2.0901 6.2495
-9 -7 -9 1.9384 3.1918
-9 -7 -8 1.1012 -0.5980
-9 -7 -7 -0.1000 1.5601
-9 -7 -6 -1.9679 -0.7410
-9 -7 -5 2.0369 -4.2842
-9 -7 -4 1.7159 -2.5638
-9 -7 -3 -1.6728 -5.5157
-9 -7 -2 7.8006 -4.8749
-9 -7 -1 5.5755 3.9487
-9 -6 -25 1.9641 3.6248
-9 -6 -24 0.6862 5.9236
-9 -6 -23 -1.3317 6.5887
-9 -6 -22 2.5325 -2.1937
-9 -6 -21 -3.0562 0.9799
-9 -6 -20 -1.1969 -3.3382
-9 -6 -19 3.9001 -4.6767
-9 -6 -18 2.6035 4.4269
-9 -6 -17 0.2202 7.6363
-9 -6 -16 -1.3221 1.2700
-9 -6 -15 -6.0059 -2.3313
-9 -6 -14 -0.4670 -2.8827
-9 -6 -13 2.1263 0.2725
-9 -6 -12 -3.6432 7.3458
-9 -6 -11 4.6210 1.1970
-9 -6 -10 0.4867 -1.5238
-9 -6 -9 2.8123 4.0029
-9 -6 -8 0.2342 -2.6342
-9 -6 -7 0.3311 1.5797
-9 -6 -6 -3.7946 0.4224
-9 -6 -5 -0.6686 6.5645
-9 -6 -4 -0.1684 1.5058
-9 -6 -3 -2.9004 -1.6661
-9 -6 -2 -4.7806 -13.1640
-9 -6 -1 1.5237 -10.1556
-9 -5 -25 3.8343 -1.9019
-9 -5 -24 4.2073 -2.9130
-9 -5 -23 2.4707 1.2842
-9 -5 -22 1.4082 3.4006
-9 -5 -21 -5.6822 -0.3962
-9 -5 -20 -4.4450 -1.9495
-9 -5 -19 -1.8434 -4.0895
-9 -5 -18 2.3293 -10.7701
-9 -5 -17 5.6931 -5.0947
-9 -5 -16 3.0544 2.0473
-9 -5 -15 -4.8582 -0.7009
-9 -5 -14 -2.2173 2.1804
-9 -5 -13 1.2249 -3.5021
-9 -5 -12 0.1329 -2.9518
-9 -5 -11 3.1141 3.6840
-9 -5 -10 2.2653 -3.3721
-9 -5 -9 -2.6038 -2.9019
-9 -5 -8 -6.5864 -1.3097
-9 -5 -7 0.9897 0.1800
-9 -5 -6 1.5178 2.7391
-9 -5 -5 -2.4388 2.0560
-9 -5 -4 0.5267 8.7056
-9 -5 -3 -1.4891 6.5201
-9 -5 -2 -2.0017 10.6932
-9 -5 -1 -4.5529 0.8386
-9 -4 -26 1.9302 4.2596
-9 -4 -25 0.2925 -2.5536
-9 -4 -24 3.5027 -2.1886
-9 -4 -23 2.5405 -1.3505
-9 -4 -22 4.8143 4.7913
-9 -4 -21 3.2068 4.5136
-9 -4 -20 8.4121 10.6810
-9 -4 -19 -7.0966 -3.7863
-9 -4 -18 -8.7411 -3.7940
-9 -4 -17 -8.2614 -4.9521
-9 -4 -16 1.3865 -4.2329
-9 -4 -15 0.9455 1.9463
-9 -4 -14 -6.3283 0.6759
-9 -4 -13 0.6372 2.1652
-9 -4 -12 -0.3975 -5.4838
-9 -4 -11 -2.3960 -1.4310
-9 -4 -10 -1.4026 -0.2618
-9 -4 -9 -0.0932 3.7321
-9 -4 -8 -4.7003 -1.2518
-9 -4 -7 -0.2442 2.5842
-9 -4 -6 3.5732 2.6366
-9 -4 -5 -0.0470 -8.5356
-9 -4 -4 4.8971 1.9489
-9 -4 -3 0.7196 2.6280
-9 -4 -2 3.7174 2.0866
-9 -4 -1 4.7761 8.5368
-9 -3 -26 -2.8459 -1.4491
-9 -3 -25 4.6036 -6.6842
-9 -3 -24 -0.8266 -0.9115
-9 -3 -23 -8.2540 -2.8157
-9 -3 -22 1.8234 -8.4607
-9 -3 -21 5.1313 -9.9961
-9 -3 -20 -2.7285 7.2505
-9 -3 -19 6.5735 2.3602
-9 -3 -18 -2.5234 5.3666
-9 -3 -17 -5.6054 4.1429
-9 -3 -16 3.9328 3.4583
-9 -3 -15 -2.0414 -1.3921
-9 -3 -14 3.0670 -0.6911
-9 -3 -13 -0.1206 1.2152
-9 -3 -12 1.6725 2.1758
-9 -3 -11 -2.9322 -0.8227
-9 -3 -10 1.6048 2.7703
-9 -3 -9 2.6488 2.4960
-9 -3 -8 7.5984 -0.4173
-9 -3 -7 -5.9631 -5.5723
-9 -3 -6 0.0142 2.2793
-9 -3 -5 4.5093 -4.5237
-9 -3 -4 -4.0418 -8.8459
-9 -3 -3 -2.8968 -3.1829
-9 -3 -2 -2.4785 -8.4870
-9 -3 -1 2.7672 3.2287
-9 -2 -26 -6.7907 -4.0974
-9 -2 -25 -2.2071 1.8722
-9 -2 -24 -2.5970 -0.6619
-9 -2 -23 -5.4525 6.9557
-9 -2 -22 -7.7174 9.2876
-9 -2 -21 7.1169 1.2760
-9 -2 -20 -7.9747 -2.2148
-9 -2 -19 0.9278 2.1939
-9 -2 -18 6.1064 3.2909
-9 -2 -17 0.5020 1.2332
-9 -2 -16 -1.2967 0.0677
-9 -2 -15 3.4354 -1.8196
-9 -2 -14 -6.7824 0.5290
-9 -2 -13 1.2434 -1.2186
-9 -2 -12 2.0300 -0.5389
-9 -2 -11 3.8131 1.8996
-9 -2 -10 3.5340 -1.7796
-9 -2 -9 1.1712 -3.6962
-9 -2 -8 2.5284 2.7681
-9 -2 -7 0.5047 -0.5180
-9 -2 -6 -5.7055 -0.3094
-9 -2 -5 8.2569 10.6187
-9 -2 -4 -1.0173 -3.4684
-9 -2 -3 -2.9713 -5.8740
-9 -2 -2 1.8001 4.3882
-9 -2 -1 1.6015 -1.8031
-9 -1 -26 -2.5273 1.0766
-9 -1 -25 -3.4641 5.9458
-9 -1 -24 5.2503 -0.4096
-9 -1 -23 3.7496 -3.5297
-9 -1 -22 1.4394 -1.9518
-9 -1 -21 6.5083 2.5128
-9 -1 -20 4.1204 -0.7906
-9 -1 -19 -3.5824 -0.7444
-9 -1 -18 -1.3967 0.5877
-9 -1 -17 1.3300 3.7801
-9 -1 -16 0.0899 2.8373
-9 -1 -15 3.8556 4.5814
-9 -1 -14 0.7028 0.3091
-9 -1 -13 -4.4138 1.6999
-9 -1 -12 -0.1532 -3.5922
-9 -1 -11 -0.7778 -1.6683
-9 -1 -10 -4.5682 1.3248
-9 -1 -9 -3.0377 -2.7542
-9 -1 -8 -2.2914 3.2598
-9 -1 -7 7.8858 8.5128
-9 -1 -6 5.5235 -5.0321
-9 -1 -5 -3.9040 4.3587
-9 -1 -4 -0.2652 1.3407
-9 -1 -3 0.3912 0.1592
-9 -1 -2 -6.4251 2.5181
-9 -1 -1 -0.2661 -2.4365
-8 -7 -25 -2.1428 2.9184
-8 -7 -24 -2.9197 10.1999
-8 -7 -23 1.7929 -6.9459
-8 -7 -22 0.5839 -1.5816
-8 -7 -21 -0.2871 -5.4351
-8 -7 -20 5.7913 0.8068
-8 -7 -19 -2.5059 -0.4786
-8 -7 -18 -0.8613 4.9695
-8 -7 -17 -2.9791 2.8768
-8 -7 -16 2.0019 -2.1271
-8 -7 -15 -2.4461 -0.8113
-8 -7 -14 -0.8529 -3.1705
-8 -7 -13 -0.7916 -1.0683
-8 -7 -12 -5.0537 3.5831
-8 -7 -11 5.0384 4.9021
-8 -7 -10 4.2249 4.5739
-8 -7 -9 3.9158 -1.6116
-8 -7 -8 3.8186 -3.9881
-8 -7 -7 -1.2558 2.3784
-8 -7 -6 1.6683 2.0716
-8 -7 -5 -1.8272 -0.0408
-8 -7 -4 -5.7008 1.0909
-8 -7 -3 -3.2071 -5.9294
-8 -7 -2 -0.4263 -0.4076
-8 -7 -1 -3.1361 -5.0470
-8 -6 -25 3.9205 -5.3464
-8 -6 -24 1.6420 7.8348
-8 -6 -23 8.7058 3.8645
-8 -6 -22 -2.0087 -1.5276
-8 -6 -21 -4.0568 0.1958
-8 -6 -20 -1.9373 -4.8035
-8 -6 -19 4.0733 -3.5988
-8 -6 -18 -0.4520 -1.0511
-8 -6 -17 0.9443 1.7282
-8 -6 -16 0.0264 3.4209
-8 -6 -15 -0.5795 -1.5253
-8 -6 -14 -0.3251 3.3449
-8 -6 -13 0.0546 2.5197
-8 -6 -12 0.0431 -4.3829
-8 -6 -11 3.8951 0.0710
-8 -6 -10 3.8336 -1.8679
-8 -6 -9 -0.7909 -0.2627
-8 -6 -8 2.9073 -5.1343
-8 -6 -7 -3.8412 -2.6079
-8 -6 -6 5.2421 3.8879
-8 -6 -5 6.7468 -0.1109
-8 -6 -4 2.0438 -2.9610
-8 -6 -3 -4.6954 1.0088
-8 -6 -2 -1.4686 -1.7112
-8 -6 -1 -7.9809 8.5698
-8 -5 -26 -4.8328 1.3759
-8 -5 -25 -0.3762 -7.0508
-8 -5 -24 -7.0176 -9.3762
-8 -5 -23 5.4791 2.6971
-8 -5 -22 4.5099 -1.1385
-8 -5 -21 -1.0607 3.8664
-8 -5 -20 -4.4032 3.0179
-8 -5 -19 -6.8247 -1.8675
-8 -5 -18 -1.1813 -1.4449
-8 -5 -17 -4.7578 -0.8510
-8 -5 -16 -3.3458 3.5411
-8 -5 -15 4.6260 2.7506
-8 -5 -14 1.0503 0.3708
-8 -5 -13 0.7518 -0.6785
-8 -5 -12 -1.6177 -3.7629
-8 -5 -11 -2.9640 -1.9565
-8 -5 -10 -3.9435 -2.2727
-8 -5 -9 -6.9221 3.2442
-8 -5 -8 5.1031 5.7035
-8 -5 -7 1.8860 2.0139
-8 -5 -6 -7.0375 -1.2499
-8 -5 -5 3.3194 2.9292
-8 -5 -4 -0.3166 -2.2624
-8 -5 -3 7.2952 -1.5560
-8 -5 -2 7.3047 7.1450
-8 -5 -1 8.2380 -7.3317
-8 -4 -26 1.7140 -1.6477
-8 -4 -25 3.8842 3.4996
-8 -4 -24 -9.2267 -4.1167
-8 -4 -23 -8.6889 -6.2755
-8 -4 -22 6.3507 -3.9062
-8 -4 -21 7.9636 0.3652
-8 -4 -20 -0.7092 0.2463
-8 -4 -19 -1.0703 -2.4724
-8 -4 -18 -2.5341 9.1520
-8 -4 -17 4.4039 1.8205
-8 -4 -16 -1.1104 0.9981
-8 -4 -15 -4.3095 2.2896
-8 -4 -14 2.7430 -0.3658
-8 -4 -13 0.1647 2.4297
-8 -4 -12 -1.7339 -1.5251
-8 -4 -11 -6.2912 2.9165
-8 -4 -10 2.3865 1.8893
-8 -4 -9 -3.5232 -2.4602
-8 -4 -8 6.8049 3.5651
-8 -4 -7 10.1890 1.6630
-8 -4 -6 -1.0291 -3.0417
-8 -4 -5 -1.1276 -1.8210
-8 -4 -4 -5.6659 6.2808
-8 -4 -3 -5.1868 -5.2839
-8 -4 -2 2.4802 -1.8633
-8 -4 -1 2.7800 -0.9715
-8 -3 -26 4.5144 -7.3969
-8 -3 -25 2.4444 3.7050
-8 -3 -24 -5.8221 6.5247
-8 -3 -23 -10.6920 2.3097
-8 -3 -22 -1.9171 -2.6009
-8 -3 -21 -2.0577 5.0257
-8 -3 -20 -0.8076 -1.0726
-8 -3 -19 3.5034 -1.1761
-8 -3 -18 -0.6461 -1.7011
-8 -3 -17 8.5408 0.1527
-8 -3 -16 3.0011 1.6655
-8 -3 -15 0.3259 -6.2688
-8 -3 -14 -0.2435 3.8148
-8 -3 -13 0.9541 1.6864
-8 -3 -12 2.5025 3.8540
-8 -3 -11 -0.4455 -1.8017
-8 -3 -10 1.3776 4.8232
-8 -3 -9 1.4253 -11.6918
-8 -3 -8 -11.4719 -5.0232
-8 -3 -7 1.5360 -2.7914
-8 -3 -6 1.3088 2.5779
-8 -3 -5 0.5632 -0.2173
-8 -3 -4 -2.9266 -1.5255
-8 -3 -3 -8.1599 10.3310
-8 -3 -2 -1.1089 1.0356
-8 -3 -1 -6.3801 3.3504
-8 -2 -26 -1.4486 8.4455
-8 -2 -25 1.5161 0.8073
-8 -2 -24 10.3968 1.2351
-8 -2 -23 0.6878 8.5987
-8 -2 -22 8.5880 1.0186
-8 -2 -21 -0.2089 -0.3532
-8 -2 -20 0.8382 -1.3340
-8 -2 -19 2.9665 0.0354
-8 -2 -18 -2.0669 -0.3212
-8 -2 -17 -0.6018 -3.3511
-8 -2 -16 -2.0572 -4.8328
-8 -2 -15 1.9037 1.6983
-8 -2 -14 -0.3957 -6.4280
-8 -2 -13 1.8572 2.1933
-8 -2 -12 3.1931 0.2324
-8 -2 -11 3.3968 -2.9079
-8 -2 -10 -7.3190 -3.2375
-8 -2 -9 1.2021 5.1167
-8 -2 -8 -5.3474 -2.5207
-8 -2 -7 2.6162 1.1582
-8 -2 -6 6.5679 -5.6525
-8 -2 -5 -1.3790 -0.0405
-8 -2 -4 5.8213 -9.7477
-8 -2 -3 0.5858 0.7228
-8 -2 -2 0.6181 12.4070
-8 -2 -1 7.0120 -9.1232
-8 -1 -27 2.7142 0.4059
-8 -1 -26 -3.7395 3.1634
-8 -1 -25 5.3715 5.0152
-8 -1 -24 2.9846 -4.4214
-8 -1 -23 2.0081 -11.7641
-8 -1 -22 -1.0286 4.2460
-8 -1 -21 1.8249 -2.5595
-8 -1 -20 -6.3912 1.6766
-8 -1 -19 1.6282 -5.1462
-8 -1 -18 1.3580 1.0852
-8 -1 -17 1.7626 8.1243
-8 -1 -16 3.7396 -1.6530
-8 -1 -15 -3.3490 2.9800
-8 -1 -14 1.3529 -5.5838
-8 -1 -13 -1.2859 -4.6690
-8 -1 -12 -0.6558 1.6458
-8 -1 -11 -0.9530 6.7330
-8 -1 -10 -2.1762 -1.4691
-8 -1 -9 -0.7860 5.0860
-8 -1 -8 6.5934 0.8470
-8 -1 -7 -1.1175 -2.6239
-8 -1 -6 1.9169 -5.0421
-8 -1 -5 -15.7015 -9.4305
-8 -1 -4 5.1345 1.1818
-8 -1 -3 2.4359 -0.2165
-8 -1 -2 -4.2640 -5.2955
-8 -1 -1 10.3569 6.5644
-7 -6 -26 0.0474 -0.5029
-7 -6 -25 0.4350 -0.4597
-7 -6 -24 -0.0933 6.0272
-7 -6 -23 2.1896 -2.0291
-7 -6 -22 -4.9064 -3.7556
-7 -6 -21 -3.7209 0.7926
-7 -6 -20 -1.9149 -3.0195
-7 -6 -19 -0.1518 4.1120
-7 -6 -18 -3.7561 1.8663
-7 -6 -17 2.1565 3.2964
-7 -6 -16 1.4748 1.0999
-7 -6 -15 4.0887 3.8623
-7 -6 -14 1.2346 -0.3697
-7 -6 -13 -6.3152 -1.5016
-7 -6 -12 4.1478 3.7539
-7 -6 -11 2.3680 -2.1001
-7 -6 -10 -3.8977 0.5042
-7 -6 -9 -1.2648 0.1706
-7 -6 -8 -3.6000 -0.3355
-7 -6 -7 -3.3847 -1.5303
-7 -6 -6 -1.2080 4.3124
-7 -6 -5 2.7759 -11.8346
-7 -6 -4 -5.6878 -4.1112
-7 -6 -3 -0.8623 8.7815
-7 -6 -2 -3.0525 9.3942
-7 -6 -1 -11.9382 2.6298
-7 -5 -26 1.8027 3.1782
-7 -5 -25 -0.3667 3.2637
-7 -5 -24 -0.4430 -0.8055
-7 -5 -23 1.0206 7.4927
-7 -5 -22 1.2854 0.5997
-7 -5 -21 -3.6156 3.7655
-7 -5 -20 -1.7055 -2.3675
-7 -5 -19 5.3050 2.7533
-7 -5 -18 -0.7692 3.6419
-7 -5 -17 0.9965 1.1150
-7 -5 -16 3.2806 -2.1360
-7 -5 -15 2.0666 -1.4947
-7 -5 -14 4.8574 -3.1245
-7 -5 -13 -1.7273 -3.4345
-7 -5 -12 -5.2767 3.0942
-7 -5 -11 -0.4250 6.2361
-7 -5 -10 -1.2462 2.2486
-7 -5 -9 6.8205 2.1661
-7 -5 -8 3.9050 2.7120
-7 -5 -7 0.9832 -0.6070
-7 -5 -6 -2.7837 -2.1438
-7 -5 -5 -1.0733 13.3593
-7 -5 -4 5.8229 -13.7433
-7 -5 -3 10.2620 1.8269
-7 -5 -2 5.4338 0.7072
-7 -5 -1 5.6233 -6.6090
-7 -4 -27 1.5757 -9.0286
-7 -4 -26 2.1572 -11.2173
-7 -4 -25 -6.8743 3.8096
-7 -4 -24 -5.7635 -1.2350
-7 -4 -23 3.1221 -0.0836
-7 -4 -22 2.7945 5.3061
-7 -4 -21 -3.3576 -1.5574
-7 -4 -20 -0.5962 -6.1662
-7 -4 -19 2.2571 3.7595
-7 -4 -18 7.5685 -2.5204
-7 -4 -17 0.8146 2.9377
-7 -4 -16 -1.8322 -1.5708
-7 -4 -15 -4.2140 0.2244
-7 -4 -14 1.1069 1.3367
-7 -4 -13 2.9713 -1.9898
-7 -4 -12 0.2854 -0.1395
-7 -4 -11 1.2582 3.7950
-7 -4 -10 2.9117 1.4664
-7 -4 -9 3.6267 -1.9032
-7 -4 -8 -1.8839 -6.2978
-7 -4 -7 -6.1915 -1.2923
-7 -4 -6 3.4978 -7.8248
-7 -4 -5 -7.4892 6.3412
-7 -4 -4 -3.0331 7.1019
-7 -4 -3 4.6978 -10.9012
-7 -4 -2 0.0650 -0.7708
-7 -4 -1 7.3337 2.7063
-7 -3 -27 -5.1743 3.7473
-7 -3 -26 6.2443 4.1150
-7 -3 -25 -4.4722 -4.2425
-7 -3 -24 -0.2915 6.0044
-7 -3 -23 1.5844 5.7948
-7 -3 -22 2.8326 4.1261
-7 -3 -21 -4.8460 1.0422
-7 -3 -20 0.1456 -2.7402
-7 -3 -19 -4.6100 -5.6177
-7 -3 -18 5.6883 -1.8966
-7 -3 -17 0.2865 -3.5471
-7 -3 -16 -0.3758 -2.3729
-7 -3 -15 1.7706 -0.1415
-7 -3 -14 -4.9991 4.3264
-7 -3 -13 1.8079 -0.8462
-7 -3 -12 2.3043 -3.9319
-7 -3 -11 1.5056 -5.3458
-7 -3 -10 -1.6452 -3.1291
-7 -3 -9 -2.3903 6.9283
-7 -3 -8 -1.6598 4.6895
-7 -3 -7 -6.6453 7.6516
-7 -3 -6 0.0275 7.0575
-7 -3 -5 3.4801 -14.1215
-7 -3 -4 -0.5176 10.5341
-7 -3 -3 -1.2737 7.2859
-7 -3 -2 6.2773 -6.9226
-7 -3 -1 -5.0530 4.8562
-7 -2 -27 2.0749 2.5338
-7 -2 -26 -3.5146 11.5996
-7 -2 -25 11.9250 -9.6032
-7 -2 -24 5.9339 -3.8558
-7 -2 -23 0.9813 -2.8219
-7 -2 -22 5.6291 3.5073
-7 -2 -21 -2.6564 -0.1438
-7 -2 -20 -2.8349 0.4301
-7 -2 -19 -2.2182 -0.3526
-7 -2 -18 -4.3310 -0.5160
-7 -2 -17 -0.6085 -0.9514
-7 -2 -16 -0.9873 0.2059
-7 -2 -15 -0.8933 -2.2577
-7 -2 -14 1.1224 -0.0542
-7 -2 -13 -4.8013 2.4634
-7 -2 -12 -2.2512 0.3839
-7 -2 -11 -6.8517 -1.3891
-7 -2 -10 0.1138 -2.4283
-7 -2 -9 1.7401 1.9540
-7 -2 -8 16.3772 2.0685
-7 -2 -7 1.6278 -5.2313
-7 -2 -6 -19.1161 1.8210
-7 -2 -5 -2.2194 -4.0995
-7 -2 -4 -3.9296 -5.9489
-7 -2 -3 -1.4236 4.2967
-7 -2 -2 5.8137 -2.5809
-7 -2 -1 2.1903 -13.6807
-7 -1 -27 -0.4638 1.1546
-7 -1 -26 3.2473 -1.7501
-7 -1 -25 0.8322 3.8069
-7 -1 -24 -1.0056 -17.3828
-7 -1 -23 -0.3119 -5.1637
-7 -1 -22 -4.0161 1.1454
-7 -1 -21 1.9049 5.8254
-7 -1 -20 -2.7567 -2.0042
-7 -1 -19 -0.1653 -1.0447
-7 -1 -18 0.3011 3.2056
-7 -1 -17 2.6402 -2.5585
-7 -1 -16 2.4077 0.8661
-7 -1 -15 -2.4041 -4.4183
-7 -1 -14 -0.4922 -2.0174
-7 -1 -13 0.9273 1.8738
-7 -1 -12 0.5954 7.7706
-7 -1 -11 -0.4225 3.6194
-7 -1 -10 2.3972 -1.0148
-7 -1 -9 2.9758 -9.8091
-7 -1 -8 -0.2402 0.7182
-7 -1 -7 10.1322 3.2593
-7 -1 -6 -12.1665 3.7345
-7 -1 -5 -6.1385 11.0160
-7 -1 -4 3.7116 13.7423
-7 -1 -3 -14.4264 -9.6622
-7 -1 -2 1.9653 0.6567
-7 -1 -1 -1.0127 7.6916
-6 -5 -26 -5.5273 5.9181
-6 -5 -25 -0.3201 -5.7160
-6 -5 -24 4.5774 1.4935
-6 -5 -23 -1.4945 -0.5708
-6 -5 -22 3.2957 1.0670
-6 -5 -21 -0.5737 -5.0973
-6 -5 -20 6.2577 -4.1767
-6 -5 -19 2.1839 2.1743
-6 -5 -18 -1.0537 2.6782
-6 -5 -17 1.0709 -1.9882
-6 -5 -16 -3.9927 -0.3144
-6 -5 -15 -0.2096 -0.6507
-6 -5 -14 -0.6838 0.7637
-6 -5 -13 -3.8023 1.9578
-6 -5 -12 -0.3101 4.5943
-6 -5 -11 0.1516 3.2440
-6 -5 -10 3.9592 -3.0048
-6 -5 -9 -3.4168 -2.8332
-6 -5 -8 -0.2974 2.1948
-6 -5 -7 7.9476 2.3437
-6 -5 -6 6.8739 3.4737
-6 -5 -5 -9.6225 5.1344
-6 -5 -4 16.4194 -11.2321
-6 -5 -3 -7.4115 -7.3047
-6 -5 -2 -3.7948 -9.0531
-6 -5 -1 -5.4155 -3.8420
-6 -4 -27 1.7322 0.0876
-6 -4 -26 -6.9579 8.0911
-6 -4 -25 -7.0970 8.3194
-6 -4 -24 3.3490 5.1734
-6 -4 -23 3.5377 3.0990
-6 -4 -22 -7.4162 -1.7552
-6 -4 -21 0.6670 -3.8368
-6 -4 -20 -0.3791 0.1638
-6 -4 -19 3.4676 -5.6833
-6 -4 -18 3.9259 -0.0081
-6 -4 -17 -3.0403 -0.2800
-6 -4 -16 1.5596 -1.3941
-6 -4 -15 -0.8255 2.1674
-6 -4 -14 2.5067 0.4198
-6 -4 -13 1.4873 -1.4371
-6 -4 -12 1.2260 0.2945
-6 -4 -11 3.1145 -3.0241
-6 -4 -10 2.5179 5.1730
-6 -4 -9 -2.0207 -3.5616
-6 -4 -8 -11.7454 -2.2257
-6 -4 -7 3.6276 5.5850
-6 -4 -6 16.6057 1.5834
-6 -4 -5 -4.2002 -0.3502
-6 -4 -4 0.1468 6.9230
-6 -4 -3 0.7174 -3.3332
-6 -4 -2 -10.2797 -2.6268
-6 -4 -1 0.3829 0.3838
-6 -3 -27 11.5437 1.4957
-6 -3 -26 2.0746 -5.5428
-6 -3 -25 9.9720 -7.1278
-6 -3 -24 0.5425 6.9109
-6 -3 -23 4.9798 1.1016
-6 -3 -22 0.5729 -1.2953
-6 -3 -21 -0.0353 1.5550
-6 -3 -20 -4.7523 0.3235
-6 -3 -19 3.5478 -0.2747
-6 -3 -18 -3.8025 0.8580
-6 -3 -17 -2.0570 -0.7515
-6 -3 -16 -0.1950 -0.5243
-6 -3 -15 -0.9914 2.6719
-6 -3 -14 -1.0401 0.4623
-6 -3 -13 3.2393 -0.8539
-6 -3 -12 -4.6197 -2.2237
-6 -3 -11 1.2131 -4.3706
-6 -3 -10 -2.3036 1.6130
-6 -3 -9 4.7229 9.7822
-6 -3 -8 3.5321 -5.9886
-6 -3 -7 -8.7372 -1.3658
-6 -3 -6 1.7954 -6.0797
-6 -3 -5 16.6519 -10.2140
-6 -3 -4 -8.6154 16.4880
-6 -3 -3 7.0265 0.2405
-6 -3 -2 0.5057 13.1512
-6 -3 -1 -11.1561 -6.0713
-6 -2 -27 -3.0572 10.4138
-6 -2 -26 -0.8691 -7.5073
-6 -2 -25 6.9269 -3.8073
-6 -2 -24 -8.7931 -6.0774
-6 -2 -23 -2.1558 -2.8643
-6 -2 -22 1.0467 -0.5839
-6 -2 -21 -0.6250 -1.9809
-6 -2 -20 3.3361 -4.2926
-6 -2 -19 -3.0711 4.3783
-6 -2 -18 4.0797 -2.9804
-6 -2 -17 -0.8691 4.4041
-6 -2 -16 0.8576 0.7325
-6 -2 -15 -1.3128 -3.0557
-6 -2 -14 -0.8780 3.2950
-6 -2 -13 1.5448 3.1597
-6 -2 -12 0.3662 2.7645
-6 -2 -11 1.2624 2.5524
-6 -2 -10 3.6077 -3.5479
-6 -2 -9 1.9766 -1.9017
-6 -2 -8 1.5818 6.1582
-6 -2 -7 -18.9803 -2.3308
-6 -2 -6 -14.2959 2.4519
-6 -2 -5 12.4835 9.9770
-6 -2 -4 2.7047 -9.5518
-6 -2 -3 17.2113 1.9902
-6 -2 -2 2.4709 2.5109
-6 -2 -1 -2.2677 12.5413
-6 -1 -27 1.5723 -7.8753
-6 -1 -26 6.5587 -1.8234
-6 -1 -25 -5.8789 -3.2755
-6 -1 -24 -3.4455 -2.3290
-6 -1 -23 -11.7976 9.3056
-6 -1 -22 -2.6745 3.8362
-6 -1 -21 -4.2305 -0.2283
-6 -1 -20 3.5907 -1.8512
-6 -1 -19 -3.4974 0.2011
-6 -1 -18 1.3566 2.1101
-6 -1 -17 0.5646 -5.1455
-6 -1 -16 -3.1725 1.9168
-6 -1 -15 -1.4921 -1.0575
-6 -1 -14 -2.4716 -1.6629
-6 -1 -13 2.4787 1.0109
-6 -1 -12 1.9623 -0.8141
-6 -1 -11 3.7866 -6.6343
-6 -1 -10 2.2661 -8.2347
-6 -1 -9 -2.0239 -2.0877
-6 -1 -8 3.2228 6.3813
-6 -1 -7 8.1598 9.1202
-6 -1 -6 -1.2245 -9.9749
-6 -1 -5 2.4076 3.1779
-6 -1 -4 -9.2223 -6.1490
-6 -1 -3 4.3757 -13.9921
-6 -1 -2 14.0637 1.8470
-6 -1 -1 10.7674 7.3393
-5 -4 -27 1.6768 -0.5283
-5 -4 -26 8.5254 4.7497
-5 -4 -25 3.5372 2.2253
-5 -4 -24 -0.4857 4.0390
-5 -4 -23 -4.0654 -5.8888
-5 -4 -22 -0.8677 -4.1471
-5 -4 -21 2.8432 2.8377
-5 -4 -20 -0.9721 -2.8893
-5 -4 -19 1.7032 -1.8733
-5 -4 -18 -5.9710 3.1757
-5 -4 -17 -3.0616 -5.0176
-5 -4 -16 1.0130 -0.7907
-5 -4 -15 -3.9382 0.1423
-5 -4 -14 1.0452 0.5029
-5 -4 -13 1.7166 -1.3559
-5 -4 -12 -0.6456 -2.7143
-5 -4 -11 2.9587 1.4795
-5 -4 -10 -5.3997 2.9617
-5 -4 -9 -4.3794 -1.0770
-5 -4 -8 4.2913 7.6871
-5 -4 -7 7.4522 -1.9840
-5 -4 -6 -15.0553 -0.6542
-5 -4 -5 -1.6669 0.8151
-5 -4 -4 -14.0383 -10.9896
-5 -4 -3 -5.8466 13.0393
-5 -4 -2 10.2155 -18.2804
-5 -4 -1 2.8220 2.1791
-5 -3 -27 -5.0496 -8.9677
-5 -3 -26 1.1736 -13.9166
-5 -3 -25 -0.0712 4.4541
-5 -3 -24 -9.1203 0.5313
-5 -3 -23 -0.7691 1.8418
-5 -3 -22 -2.6228 -0.3259
-5 -3 -21 0.7496 1.0369
-5 -3 -20 3.2966 -2.4301
-5 -3 -19 2.9590 5.0837
-5 -3 -18 -2.0972 1.3088
-5 -3 -17 0.0335 3.8096
-5 -3 -16 0.2776 1.5639
-5 -3 -15 -0.8001 -0.3902
-5 -3 -14 -0.8943 -0.3280
-5 -3 -13 -0.4764 -0.0524
-5 -3 -12 -1.2179 -5.3467
-5 -3 -11 0.7713 0.9316
-5 -3 -10 1.9419 1.5655
-5 -3 -9 1.9891 -4.8037
-5 -3 -8 -2.1871 -0.3530
-5 -3 -7 4.2207 5.7277
-5 -3 -6 6.8100 -4.8346
-5 -3 -5 -0.0080 34.2310
-5 -3 -4 6.6666 -11.4725
-5 -3 -3 -2.7884 0.1113
-5 -3 -2 -6.0748 6.2517
-5 -3 -1 7.3559 -29.6218
-5 -2 -28 1.6525 11.9929
-5 -2 -27 -1.2137 2.1734
-5 -2 -26 8.5780 0.5793
-5 -2 -25 -3.1518 1.5249
-5 -2 -24 -1.6307 -1.5530
-5 -2 -23 4.3601 4.3980
-5 -2 -22 -3.3461 2.5193
-5 -2 -21 -0.7148 -4.7602
-5 -2 -20 1.1499 0.8029
-5 -2 -19 -1.6908 -2.6504
-5 -2 -18 7.3179 3.5795
-5 -2 -17 -0.9905 0.8347
-5 -2 -16 -1.7451 0.5125
-5 -2 -15 3.0958 -0.0480
-5 -2 -14 0.6646 2.8769
-5 -2 -13 0.5425 0.8726
-5 -2 -12 1.5374 -0.7398
-5 -2 -11 -4.4270 -2.7518
-5 -2 -10 -4.4922 -3.4229
-5 -2 -9 1.2608 5.9453
-5 -2 -8 -9.4354 -3.0750
-5 -2 -7 0.9348 -2.5066
-5 -2 -6 33.5496 -4.6677
-5 -2 -5 -9.5218 -0.7417
-5 -2 -4 19.4331 1.4733
-5 -2 -3 -3.5179 -8.4415
-5 -2 -2 -25.1167 9.2677
-5 -2 -1 -7.1969 2.1219
-5 -1 -28 -6.0115 -3.4198
-5 -1 -27 4.5039 -8.8611
-5 -1 -26 -5.0275 1.9126
-5 -1 -25 -6.8017 2.6452
-5 -1 -24 -1.8955 4.2520
-5 -1 -23 4.1229 4.7340
-5 -1 -22 3.0330 0.1492
-5 -1 -21 1.5151 -1.7346
-5 -1 -20 -0.9909 3.0793
-5 -1 -19 -0.2319 -2.3840
-5 -1 -18 1.9566 -0.1113
-5 -1 -17 4.1619 -0.5611
-5 -1 -16 -1.9805 2.8465
-5 -1 -15 -1.3883 1.4352
-5 -1 -14 3.3423 -2.9391
-5 -1 -13 0.4955 0.6879
-5 -1 -12 -1.4991 -1.3919
-5 -1 -11 0.1621 -0.0553
-5 -1 -10 -6.8304 4.1963
-5 -1 -9 -6.2587 9.3349
-5 -1 -8 9.7653 1.1633
-5 -1 -7 -21.1683 -21.6085
-5 -1 -6 -4.5987 -9.3740
-5 -1 -5 -6.2877 -9.0226
-5 -1 -4 -9.6385 15.0160
-5 -1 -3 39.1705 16.7181
-5 -1 -2 -11.1549 1.7851
-5 -1 -1 -0.4574 -8.0443
-4 -3 -28 -2.9458 2.1906
-4 -3 -27 -0.7110 -5.9238
-4 -3 -26 -4.9909 2.1847
-4 -3 -25 -9.4940 0.7918
-4 -3 -24 7.7276 1.5131
-4 -3 -23 1.4669 4.8800
-4 -3 -22 2.3149 -1.1613
-4 -3 -21 2.8953 -2.6194
-4 -3 -20 -1.4374 -1.8820
-4 -3 -19 -2.1868 0.4038
-4 -3 -18 1.3352 -2.5851
-4 -3 -17 1.7393 -0.3954
-4 -3 -16 -1.8430 0.1933
-4 -3 -15 -1.4228 2.1392
-4 -3 -14 0.2390 -4.2561
-4 -3 -13 -0.7140 -0.3570
-4 -3 -12 1.4604 -1.7727
-4 -3 -11 -2.5304 1.8243
-4 -3 -10 5.1847 4.0847
-4 -3 -9 -0.7205 -2.3743
-4 -3 -8 -12.0218 7.0512
-4 -3 -7 4.9515 1.0253
-4 -3 -6 -1.2246 3.9252
-4 -3 -5 -15.8975 -12.8271
-4 -3 -4 -7.0461 -18.5781
-4 -3 -3 -12.0439 -13.1377
-4 -3 -2 -7.9610 -29.9374
-4 -3 -1 33.7079 6.0129
-4 -2 -28 2.1861 3.6940
-4 -2 -27 13.5093 0.4784
-4 -2 -26 -2.4828 0.8421
-4 -2 -25 -6.1057 -7.1904
-4 -2 -24 0.8482 -3.8945
-4 -2 -23 -1.7488 2.2310
-4 -2 -22 -4.4296 -4.8665
-4 -2 -21 0.6684 -0.5073
-4 -2 -20 -2.0693 1.8748
-4 -2 -19 3.4548 1.2637
-4 -2 -18 -3.3372 1.9053
-4 -2 -17 -0.8535 -0.5248
-4 -2 -16 0.7481 -3.8164
-4 -2 -15 -0.9390 4.3622
-4 -2 -14 -0.2430 -1.9205
-4 -2 -13 -1.5075 -3.7382
-4 -2 -12 -1.5473 3.8676
-4 -2 -11 -3.2335 -4.7647
-4 -2 -10 7.3795 9.3660
-4 -2 -9 10.0099 8.0140
-4 -2 -8 2.2265 -10.5762
-4 -2 -7 10.0306 5.8866
-4 -2 -6 -2.0146 14.4580
-4 -2 -5 -6.1622 0.1472
-4 -2 -4 -7.9149 16.4182
-4 -2 -3 -32.5634 26.1154
-4 -2 -2 -15.3484 -24.6881
-4 -2 -1 11.8262 -15.3593
-4 -1 -28 -6.3469 -5.4135
-4 -1 -27 5.0437 4.1687
-4 -1 -26 -1.3182 8.8276
-4 -1 -25 -0.7829 4.5840
-4 -1 -24 8.3695 0.6497
-4 -1 -23 -1.3249 1.5358
-4 -1 -22 -2.3215 3.3422
-4 -1 -21 1.1792 4.3679
-4 -1 -20 -4.7662 0.5278
-4 -1 -19 6.4493 -1.7215
-4 -1 -18 3.6887 -4.6198
-4 -1 -17 0.3241 2.4220
-4 -1 -16 3.3562 0.3059
-4 -1 -15 -2.3364 -3.0480
-4 -1 -14 0.9961 3.4341
-4 -1 -13 -2.8657 1.1211
-4 -1 -12 -1.5257 1.6590
-4 -1 -11 4.1449 0.8043
-4 -1 -10 -2.3638 -4.0901
-4 -1 -9 10.1974 -4.4033
-4 -1 -8 0.9977 -7.1046
-4 -1 -7 -13.1871 -7.3583
-4 -1 -6 1.9027 21.5271
-4 -1 -5 18.2297 21.6137
-4 -1 -4 53.0969 -7.1747
-4 -1 -3 -5.8280 25.9108
-4 -1 -2 -24.7355 -9.3374
-4 -1 -1 -23.5396 -17.8135
-3 -2 -28 11.1848 -2.9069
-3 -2 -27 3.1243 -2.9511
-3 -2 -26 -4.7885 -2.7516
-3 -2 -25 -2.8649 2.5710
-3 -2 -24 -3.6462 4.4532
-3 -2 -23 -6.3653 -0.1986
-3 -2 -22 1.4284 -5.2779
-3 -2 -21 1.9168 0.0439
-3 -2 -20 8.5091 -1.5171
-3 -2 -19 2.3360 1.9962
-3 -2 -18 3.7369 -1.3740
-3 -2 -17 -3.1388 3.9198
-3 -2 -16 0.4237 4.4482
-3 -2 -15 -4.4879 -4.0949
-3 -2 -14 -4.1675 -2.3412
-3 -2 -13 1.7464 2.1155
-3 -2 -12 -0.3831 -2.6179
-3 -2 -11 11.3867 2.0819
-3 -2 -10 0.2399 3.7444
-3 -2 -9 -5.7945 -12.1488
-3 -2 -8 4.8176 -11.0465
-3 -2 -7 -5.4378 -1.5386
-3 -2 -6 1.7774 -10.4756
-3 -2 -5 15.4131 -5.1757
-3 -2 -4 -1.3484 23.4640
-3 -2 -3 -22.1844 -32.1868
-3 -2 -2 19.2961 -29.3784
-3 -2 -1 14.7602 2.8028
-3 -1 -28 0.6941 -0.2518
-3 -1 -27 6.1386 3.9321
-3 -1 -26 -5.2025 -3.9902
-3 -1 -25 3.6763 -1.8196
-3 -1 -24 2.8621 0.2885
-3 -1 -23 -4.9373 0.5245
-3 -1 -22 5.0257 2.1539
-3 -1 -21 -0.6060 -1.2206
-3 -1 -20 1.0058 -9.2046
-3 -1 -19 0.2973 -9.1984
-3 -1 -18 2.4434 -3.7252
-3 -1 -17 -0.1445 -4.0450
-3 -1 -16 -3.2003 6.5220
-3 -1 -15 1.0753 1.7337
-3 -1 -14 -1.1615 3.4475
-3 -1 -13 -3.0338 4.3337
-3 -1 -12 3.7573 -6.6091
-3 -1 -11 0.3856 -2.5568
-3 -1 -10 -0.2044 -6.2171
-3 -1 -9 -7.8633 7.5587
-3 -1 -8 -14.0456 16.0986
-3 -1 -7 0.5147 9.4317
-3 -1 -6 6.1892 4.1478
-3 -1 -5 23.8042 -42.8746
-3 -1 -4 1.0686 11.5508
-3 -1 -3 -47.4858 5.6220
-3 -1 -2 -12.2284 -11.1376
-3 -1 -1 -6.1201 32.0760
-2 -1 -28 9.0138 -0.5447
-2 -1 -27 -7.5446 6.4512
-2 -1 -26 -0.7211 4.3681
-2 -1 -25 -3.8726 -1.6654
-2 -1 -24 -5.2032 -1.2965
-2 -1 -23 5.7259 -4.9863
-2 -1 -22 1.0531 -3.5236
-2 -1 -21 -0.7597 0.1153
-2 -1 -20 -5.1611 -0.0891
-2 -1 -19 -7.0085 4.5266
-2 -1 -18 -6.5030 -0.7179
-2 -1 -17 -2.2942 2.4210
-2 -1 -16 0.2149 2.4082
-2 -1 -15 3.5377 2.5248
-2 -1 -14 1.9639 4.6268
-2 -1 -13 -2.7882 -9.9380
-2 -1 -12 -2.6543 -2.2189
-2 -1 -11 -2.3449 0.6262
-2 -1 -10 -0.2295 4.2043
-2 -1 -9 6.9594 20.0072
-2 -1 -8 3.9592 1.0009
-2 -1 -7 13.0187 -9.1664
-2 -1 -6 3.8432 -46.5965
-2 -1 -5 18.6119 16.5854
-2 -1 -4 -18.7268 47.0213
-2 -1 -3 -14.8190 11.9811
-2 -1 -2 37.3759 -4.7300
-2 -1 -1 -29.0571 -26.4500
0 0 4 -71.1861 2.4007
0 0 8 -13.6575 -2.0716
0 0 12 5.9244 1.8243
0 0 16 1.1824 -1.6874
0 0 20 -3.5106 1.3968
0 0 24 -12.7034 -1.0085
0 0 28 19.8606 0.6069
1 0 2 -36.4951 -0.9206
1 0 3 -26.5858 29.3015
1 0 4 0.2113 -49.1115
1 0 5 8.4220 6.1811
1 0 6 0.7685 -1.1846
1 0 7 4.7137 -5.6523
1 0 8 -0.3276 7.0645
1 0 9 15.1551 15.6020
1 0 10 0.4525 -1.1429
1 0 11 -3.5758 5.6747
1 0 12 0.2860 -0.3514
1 0 13 -5.3016 -6.5924
1 0 14 -0.5413 -1.4326
1 0 15 -3.4094 2.5543
1 0 16 -0.3849 -2.1078
1 0 17 -5.8716 -5.7966
1 0 18 1.1044 -0.5652
1 0 19 -3.0378 4.3997
1 0 20 0.4913 -1.1788
1 0 21 -3.3596 -4.2320
1 0 22 2.7967 -0.8830
1 0 23 -2.9054 2.0922
1 0 24 -0.3932 6.0338
1 0 25 4.8017 4.6331
1 0 26 -7.4484 -0.3414
1 0 27 4.7212 -4.1734
1 0 28 0.4067 10.9821
1 0 29 -6.7240 -7.3109
1 1 0 0.5721 0.9879
1 1 1 0.0574 60.3055
1 1 2 -49.3302 -0.5168
1 1 3 -2.2280 46.0144
1 1 4 -0.8212 -1.2259
1 1 5 -1.9451 -55.5083
1 1 6 -17.4964 -0.3970
1 1 7 0.5838 14.8174
1 1 8 3.1339 0.2438
1 1 9 0.5114 9.3298
1 1 10 23.8254 -0.7056
1 1 11 -1.5166 -1.8211
1 1 12 -4.5212 -0.7938
1 1 13 -1.4586 2.2529
1 1 14 -4.7829 0.0096
1 1 15 0.1867 0.6300
1 1 16 5.1924 0.3032
1 1 17 0.4774 -3.6012
1 1 18 -1.5571 -0.6941
1 1 19 -1.0150 -3.9154
1 1 20 0.9661 -0.5406
1 1 21 -0.8167 -4.1329
1 1 22 -7.1226 0.1084
1 1 23 0.0615 -3.3598
1 1 24 1.0331 0.1892
1 1 25 0.1523 7.9903
1 1 26 3.0941 -0.4367
1 1 27 -0.6105 -1.6783
1 1 28 1.1437 -0.4706
2 0 0 -156.2242 -0.6449
2 0 1 -30.1982 26.6958
2 0 2 -0.5506 51.1324
2 0 3 -16.1087 -18.1151
2 0 4 55.6045 -0.2883
2 0 5 -29.3399 31.7834
2 0 6 -0.0184 22.7865
2 0 7 -3.1007 -0.9903
2 0 8 13.5747 0.0945
2 0 9 5.8456 -7.5986
2 0 10 0.1048 1.0308
2 0 11 -0.9116 -3.3694
2 0 12 -7.5255 0.1073
2 0 13 4.4877 -2.8009
2 0 14 -0.1648 0.3359
2 0 15 0.9106 2.7486
2 0 16 -0.0986 -0.1229
2 0 17 -0.3083 -0.5296
2 0 18 -0.0115 3.6439
2 0 19 0.1493 -1.6192
2 0 20 6.6841 0.1539
2 0 21 0.8330 0.0880
2 0 22 -0.1580 9.2817
2 0 23 -4.8226 -3.8596
2 0 24 -1.8667 -0.1196
2 0 25 2.4204 -2.7242
2 0 26 -0.0123 -11.0476
2 0 27 13.7556 12.8081
2 0 28 1.6969 -0.0397
2 0 29 -0.3170 0.6445
2 1 0 82.6839 1.2521
2 1 1 -29.0571 26.4500
2 1 2 37.3759 4.7300
2 1 3 -14.8190 -11.9811
2 1 4 -18.7268 -47.0213
2 1 5 18.6119 -16.5854
2 1 6 3.8432 46.5965
2 1 7 13.0187 9.1664
2 1 8 3.9592 -1.0009
2 1 9 6.9594 -20.0072
2 1 10 -0.2295 -4.2043
2 1 11 -2.3449 -0.6262
2 1 12 -2.6543 2.2189
2 1 13 -2.7882 9.9380
2 1 14 1.9639 -4.6268
2 1 15 3.5377 -2.5248
2 1 16 0.2149 -2.4082
2 1 17 -2.2942 -2.4210
2 1 18 -6.5030 0.7179
2 1 19 -7.0085 -4.5266
2 1 20 -5.1611 0.0891
2 1 21 -0.7597 -0.1153
2 1 22 1.0531 3.5236
2 1 23 5.7259 4.9863
2 1 24 -5.2032 1.2965
2 1 25 -3.8726 1.6654
2 1 26 -0.7211 -4.3681
2 1 27 -7.5446 -6.4512
2 1 28 9.0138 0.5447
2 2 0 27.5679 -0.7187
2 2 1 0.8372 -59.3138
2 2 2 -1.8616 0.2299
2 2 3 -0.8973 36.8896
2 2 4 -61.5093 -1.5812
2 2 5 -1.2599 -41.0321
2 2 6 5.6760 -0.2891
2 2 7 0.5075 9.9387
2 2 8 -13.2991 -0.7770
2 2 9 0.7203 5.6477
2 2 10 -13.8271 1.3064
2 2 11 -0.7829 -3.0180
2 2 12 10.8528 -1.1623
2 2 13 -1.0290 2.8115
2 2 14 1.4521 -0.3577
2 2 15 0.4238 -0.2365
2 2 16 -0.3197 -0.6561
2 2 17 0.6597 -1.6842
2 2 18 0.8714 1.4024
2 2 19 -0.4935 9.3517
2 2 20 -6.2228 -0.7754
2 2 21 -0.7773 1.8992
2 2 22 1.0425 -0.6291
2 2 23 0.2081 4.6742
2 2 24 3.3319 -0.4783
2 2 25 0.4442 -1.1592
2 2 26 -2.5716 1.0473
2 2 27 -0.2538 2.1736
2 2 28 -3.4301 -0.2621
3 0 1 47.1393 48.2467
3 0 2 -19.7315 0.0082
3 0 3 37.2769 -36.3291
3 0 4 0.4920 40.3150
3 0 5 5.4685 4.9480
3 0 6 8.7203 -0.4785
3 0 7 11.6537 -12.3215
3 0 8 0.0935 -20.5414
3 0 9 -1.0145 -0.3746
3 0 10 -0.3621 0.0090
3 0 11 -5.1983 4.8304
3 0 12 -0.3513 -3.7044
3 0 13 -0.6584 -1.0701
3 0 14 3.0307 -0.1467
3 0 15 2.5417 -2.8308
3 0 16 0.2112 1.4599
3 0 17 5.7963 6.7069
3 0 18 -4.1658 0.0368
3 0 19 -1.4879 1.4815
3 0 20 -0.2279 -5.0526
3 0 21 1.2058 0.7906
3 0 22 -4.6142 -0.1905
3 0 23 -0.5777 0.3912
3 0 24 0.0407 4.2033
3 0 25 -3.3289 -2.6594
3 0 26 8.4894 0.0861
3 0 27 6.3328 -6.4822
3 0 28 -0.2906 -5.9178
3 1 0 7.5118 -2.6217
3 1 1 -6.1201 -32.0760
3 1 2 -12.2284 11.1376
3 1 3 -47.4858 -5.6220
3 1 4 1.0686 -11.5508
3 1 5 23.8042 42.8746
3 1 6 6.1892 -4.1478
3 1 7 0.5147 -9.4317
3 1 8 -14.0456 -16.0986
3 1 9 -7.8633 -7.5587
3 1 10 -0.2044 6.2171
3 1 11 0.3856 2.5568
3 1 12 3.7573 6.6091
3 1 13 -3.0338 -4.3337
3 1 14 -1.1615 -3.4475
3 1 15 1.0753 -1.7337
3 1 16 -3.2003 -6.5220
3 1 17 -0.1445 4.0450
3 1 18 2.4434 3.7252
3 1 19 0.2973 9.1984
3 1 20 1.0058 9.2046
3 1 21 -0.6060 1.2206
3 1 22 5.0257 -2.1539
3 1 23 -4.9373 -0.5245
3 1 24 2.8621 -0.2885
3 1 25 3.6763 1.8196
3 1 26 -5.2025 3.9902
3 1 27 6.1386 -3.9321
3 1 28 0.6941 0.2518
3 2 0 -30.0695 0.1583
3 2 1 14.7602 -2.8028
3 2 2 19.2961 29.3784
3 2 3 -22.1844 32.1868
3 2 4 -1.3484 -23.4640
3 2 5 15.4131 5.1757
3 2 6 1.7774 10.4756
3 2 7 -5.4378 1.5386
3 2 8 4.8176 11.0465
3 2 9 -5.7945 12.1488
3 2 10 0.2399 -3.7444
3 2 11 11.3867 -2.0819
3 2 12 -0.3831 2.6179
3 2 13 1.7464 -2.1155
3 2 14 -4.1675 2.3412
3 2 15 -4.4879 4.0949
3 2 16 0.4237 -4.4482
3 2 17 -3.1388 -3.9198
3 2 18 3.7369 1.3740
3 2 19 2.3360 -1.9962
3 2 20 8.5091 1.5171
3 2 21 1.9168 -0.0439
3 2 22 1.4284 5.2779
3 2 23 -6.3653 0.1986
3 2 24 -3.6462 -4.4532
3 2 25 -2.8649 -2.5710
3 2 26 -4.7885 2.7516
3 2 27 3.1243 2.9511
3 2 28 11.1848 2.9069
3 3 0 -26.4730 2.2010
3 3 1 -1.0544 -29.9334
3 3 2 37.3162 0.1930
3 3 3 0.0231 -4.0743
3 3 4 -7.1905 -4.1048
3 3 5 0.7613 0.0302
3 3 6 -5.9643 0.2007
3 3 7 -0.5498 -10.5400
3 3 8 5.0099 1.3689
3 3 9 -1.2737 0.5630
3 3 10 -1.4706 0.2424
3 3 11 -0.0428 -1.2592
3 3 12 -0.2120 -3.0056
3 3 13 1.0368 0.5180
3 3 14 5.1475 0.4577
3 3 15 -0.0016 5.0193
3 3 16 0.4510 0.8599
3 3 17 -1.0891 -3.4144
3 3 18 -2.8192 -0.0192
3 3 19 -0.3351 -4.8000
3 3 20 -2.4272 -1.9421
3 3 21 0.8631 -3.8275
3 3 22 5.3746 0.3874
3 3 23 0.1884 9.0954
3 3 24 5.3493 0.4501
3 3 25 -0.8790 2.4573
3 3 26 -13.2736 -0.0511
3 3 27 -0.2976 -7.7590
3 3 28 5.8340 -0.9461
4 0 0 10.5983 2.4843
4 0 1 -5.2872 5.7915
4 0 2 -1.0779 -53.7982
4 0 3 38.9876 39.8769
4 0 4 26.2446 -1.9889
4 0 5 14.1789 -15.2628
4 0 6 1.0995 2.8406
4 0 7 -8.5686 -8.8740
4 0 8 -3.0544 1.0679
4 0 9 -8.4548 9.0058
4 0 10 -1.3622 9.4609
4 0 11 -0.1826 0.6356
4 0 12 -0.0696 -1.3477
4 0 13 1.0726 -1.8012
4 0 14 1.0570 0.5334
4 0 15 3.8394 3.4845
4 0 16 2.8885 0.7979
4 0 17 -2.7344 3.1528
4 0 18 -0.6737 1.2808
4 0 19 -5.4499 -5.0212
4 0 20 -1.0940 -1.0832
4 0 21 3.4439 -3.9513
4 0 22 0.4593 -2.3119
4 0 23 10.0604 9.9097
4 0 24 3.2790 0.5245
4 0 25 3.6582 -3.3161
4 0 26 -0.3822 -6.2598
4 0 27 -0.9527 -0.5812
4 0 28 -7.1116 -0.6508
4 1 0 -25.9854 0.0753
4 1 1 -23.5396 17.8135
4 1 2 -24.7355 9.3374
4 1 3 -5.8280 -25.9108
4 1 4 53.0969 7.1747
4 1 5 18.2297 -21.6137
4 1 6 1.9027 -21.5271
4 1 7 -13.1871 7.3583
4 1 8 0.9977 7.1046
4 1 9 10.1974 4.4033
4 1 10 -2.3638 4.0901
4 1 11 4.1449 -0.8043
4 1 12 -1.5257 -1.6590
4 1 13 -2.8657 -1.1211
4 1 14 0.9961 -3.4341
4 1 15 -2.3364 3.0480
4 1 16 3.3562 -0.3059
4 1 17 0.3241 -2.4220
4 1 18 3.6887 4.6198
4 1 19 6.4493 1.7215
4 1 20 -4.7662 -0.5278
4 1 21 1.1792 -4.3679
4 1 22 -2.3215 -3.3422
4 1 23 -1.3249 -1.5358
4 1 24 8.3695 -0.6497
4 1 25 -0.7829 -4.5840
4 1 26 -1.3182 -8.8276
4 1 27 5.0437 -4.1687
4 1 28 -6.3469 5.4135
4 2 0 36.0324 -0.8751
4 2 1 11.8262 15.3593
4 2 2 -15.3484 24.6881
4 2 3 -32.5634 -26.1154
4 2 4 -7.9149 -16.4182
4 2 5 -6.1622 -0.1472
4 2 6 -2.0146 -14.4580
4 2 7 10.0306 -5.8866
4 2 8 2.2265 10.5762
4 2 9 10.0099 -8.0140
4 2 10 7.3795 -9.3660
4 2 11 -3.2335 4.7647
4 2 12 -1.5473 -3.8676
4 2 13 -1.5075 3.7382
4 2 14 -0.2430 1.9205
4 2 15 -0.9390 -4.3622
4 2 16 0.7481 3.8164
4 2 17 -0.8535 0.5248
4 2 18 -3.3372 -1.9053
4 2 19 3.4548 -1.2637
4 2 20 -2.0693 -1.8748
4 2 21 0.6684 0.5073
4 2 22 -4.4296 4.8665
4 2 23 -1.7488 -2.2310
4 2 24 0.8482 3.8945
4 2 25 -6.1057 7.1904
4 2 26 -2.4828 -0.8421
4 2 27 13.5093 -0.4784
4 2 28 2.1861 -3.6940
4 3 0 -14.1733 0.3486
4 3 1 33.7079 -6.0129
4 3 2 -7.9610 29.9374
4 3 3 -12.0439 13.1377
4 3 4 -7.0461 18.5781
4 3 5 -15.8975 12.8271
4 3 6 -1.2246 -3.9252
4 3 7 4.9515 -1.0253
4 3 8 -12.0218 -7.0512
4 3 9 -0.7205 2.3743
4 3 10 5.1847 -4.0847
4 3 11 -2.5304 -1.8243
4 3 12 1.4604 1.7727
4 3 13 -0.7140 0.3570
4 3 14 0.2390 4.2561
4 3 15 -1.4228 -2.1392
4 3 16 -1.8430 -0.1933
4 3 17 1.7393 0.3954
4 3 18 1.3352 2.5851
4 3 19 -2.1868 -0.4038
4 3 20 -1.4374 1.8820
4 3 21 2.8953 2.6194
4 3 22 2.3149 1.1613
4 3 23 1.4669 -4.8800
4 3 24 7.7276 -1.5131
4 3 25 -9.4940 -0.7918
4 3 26 -4.9909 -2.1847
4 3 27 -0.7110 5.9238
4 4 0 -20.1635 -3.5914
4 4 1 -1.0658 -7.3775
4 4 2 26.5371 0.6612
4 4 3 0.2180 9.4703
4 4 4 16.1155 1.4419
4 4 5 0.6105 1.2835
4 4 6 -6.0078 0.2956
4 4 7 -1.0515 12.3458
4 4 8 4.1701 -3.5604
4 4 9 -1.4796 0.8391
4 4 10 -0.7860 0.3019
4 4 11 0.5133 -8.8358
4 4 12 0.2841 1.2649
4 4 13 0.5984 0.3192
4 4 14 3.6506 0.5281
4 4 15 -0.8455 2.5058
4 4 16 -3.8828 -2.6124
4 4 17 -0.8947 -0.6787
4 4 18 -5.1588 -0.0001
4 4 19 0.0623 -3.4863
4 4 20 -0.4018 0.8034
4 4 21 0.3598 2.2112
4 4 22 3.2436 0.4577
4 4 23 -0.3974 0.2516
4 4 24 -3.0859 -1.4988
4 4 25 -0.3917 -1.9967
4 4 26 1.0648 -0.0597
4 4 27 -0.0137 9.1178
5 0 1 -7.6843 -8.9239
5 0 2 42.1996 -0.3950
5 0 3 16.1836 -16.3727
5 0 4 0.3159 -13.4149
5 0 5 -5.3984 -4.7441
5 0 6 -49.2611 -0.4475
5 0 7 -5.2432 4.2010
5 0 8 0.0046 -8.4887
5 0 9 0.9902 1.3007
5 0 10 9.6257 -0.2408
5 0 11 4.5495 -4.0731
5 0 12 -0.1310 -1.7836
5 0 13 0.0243 0.6094
5 0 14 0.7109 -0.3315
5 0 15 -0.3103 -0.7690
5 0 16 0.1660 0.0510
5 0 17 1.2607 1.1167
5 0 18 -3.1612 -0.1967
5 0 19 -1.3087 1.5672
5 0 20 -0.2123 0.5705
5 0 21 0.5760 1.3202
5 0 22 3.8450 -0.2815
5 0 23 -1.4740 0.7693
5 0 24 -0.0350 -5.5788
5 0 25 -5.0259 -5.2618
5 0 26 2.6649 -0.0210
5 0 27 -5.3359 5.4661
5 1 0 -8.3866 -1.0992
5 1 1 -0.4574 8.0443
5 1 2 -11.1549 -1.7851
5 1 3 39.1705 -16.7181
5 1 4 -9.6385 -15.0160
5 1 5 -6.2877 9.0226
5 1 6 -4.5987 9.3740
5 1 7 -21.1683 21.6085
5 1 8 9.7653 -1.1633
5 1 9 -6.2587 -9.3349
5 1 10 -6.8304 -4.1963
5 1 11 0.1621 0.0553
5 1 12 -1.4991 1.3919
5 1 13 0.4955 -0.6879
5 1 14 3.3423 2.9391
5 1 15 -1.3883 -1.4352
5 1 16 -1.9805 -2.8465
5 1 17 4.1619 0.5611
5 1 18 1.9566 0.1113
5 1 19 -0.2319 2.3840
5 1 20 -0.9909 -3.0793
5 1 21 1.5151 1.7346
5 1 22 3.0330 -0.1492
5 1 23 4.1229 -4.7340
5 1 24 -1.8955 -4.2520
5 1 25 -6.8017 -2.6452
5 1 26 -5.0275 -1.9126
5 1 27 4.5039 8.8611
5 2 0 4.1527 -0.1593
5 2 1 -7.1969 -2.1219
5 2 2 -25.1167 -9.2677
5 2 3 -3.5179 8.4415
5 2 4 19.4331 -1.4733
5 2 5 -9.5218 0.7417
5 2 6 33.5496 4.6677
5 2 7 0.9348 2.5066
5 2 8 -9.4354 3.0750
5 2 9 1.2608 -5.9453
5 2 10 -4.4922 3.4229
5 2 11 -4.4270 2.7518
5 2 12 1.5374 0.7398
5 2 13 0.5425 -0.8726
5 2 14 0.6646 -2.8769
5 2 15 3.0958 0.0480
5 2 16 -1.7451 -0.5125
5 2 17 -0.9905 -0.8347
5 2 18 7.3179 -3.5795
5 2 19 -1.6908 2.6504
5 2 20 1.1499 -0.8029
5 2 21 -0.7148 4.7602
5 2 22 -3.3461 -2.5193
5 2 23 4.3601 -4.3980
5 2 24 -1.6307 1.5530
5 2 25 -3.1518 -1.5249
5 2 26 8.5780 -0.5793
5 2 27 -1.2137 -2.1734
5 3 0 8.2708 0.5584
5 3 1 7.3559 29.6218
5 3 2 -6.0748 -6.2517
5 3 3 -2.7884 -0.1113
5 3 4 6.6666 11.4725
5 3 5 -0.0080 -34.2310
5 3 6 6.8100 4.8346
5 3 7 4.2207 -5.7277
5 3 8 -2.1871 0.3530
5 3 9 1.9891 4.8037
5 3 10 1.9419 -1.5655
5 3 11 0.7713 -0.9316
5 3 12 -1.2179 5.3467
5 3 13 -0.4764 0.0524
5 3 14 -0.8943 0.3280
5 3 15 -0.8001 0.3902
5 3 16 0.2776 -1.5639
5 3 17 0.0335 -3.8096
5 3 18 -2.0972 -1.3088
5 3 19 2.9590 -5.0837
5 3 20 3.2966 2.4301
5 3 21 0.7496 -1.0369
5 3 22 -2.6228 0.3259
5 3 23 -0.7691 -1.8418
5 3 24 -9.1203 -0.5313
5 3 25 -0.0712 -4.4541
5 3 26 1.1736 13.9166
5 3 27 -5.0496 8.9677
5 4 0 14.8840 -0.1724
5 4 1 2.8220 -2.1791
5 4 2 10.2155 18.2804
5 4 3 -5.8466 -13.0393
5 4 4 -14.0383 10.9896
5 4 5 -1.6669 -0.8151
5 4 6 -15.0553 0.6542
5 4 7 7.4522 1.9840
5 4 8 4.2913 -7.6871
5 4 9 -4.3794 1.0770
5 4 10 -5.3997 -2.9617
5 4 11 2.9587 -1.4795
5 4 12 -0.6456 2.7143
5 4 13 1.7166 1.3559
5 4 14 1.0452 -0.5029
5 4 15 -3.9382 -0.1423
5 4 16 1.0130 0.7907
5 4 17 -3.0616 5.0176
5 4 18 -5.9710 -3.1757
5 4 19 1.7032 1.8733
5 4 20 -0.9721 2.8893
5 4 21 2.8432 -2.8377
5 4 22 -0.8677 4.1471
5 4 23 -4.0654 5.8888
5 4 24 -0.4857 -4.0390
5 4 25 3.5372 -2.2253
5 4 26 8.5254 -4.7497
5 4 27 1.6768 0.5283
5 5 0 0.3150 0.0304
5 5 1 0.2909 -29.5166
5 5 2 -6.7898 0.3684
5 5 3 -1.5674 7.8743
5 5 4 -5.8968 -1.0450
5 5 5 -1.4596 28.9468
5 5 6 -2.7186 1.0841
5 5 7 0.6854 10.7775
5 5 8 6.9567 -0.4612
5 5 9 0.8605 0.7432
5 5 10 -1.2909 -0.2481
5 5 11 -1.1428 2.0839
5 5 12 1.8694 -0.7759
5 5 13 -1.2555 1.5775
5 5 14 1.4468 1.0403
5 5 15 0.2537 -3.5437
5 5 16 -0.5976 -0.2901
5 5 17 0.6816 1.4698
5 5 18 0.6347 -0.4187
5 5 19 -0.7052 -3.3365
5 5 20 0.3907 -0.5850
5 5 21 -0.9803 5.8861
5 5 22 2.0892 0.9394
5 5 23 0.1250 8.8091
5 5 24 -0.5473 -0.1502
5 5 25 0.4311 -1.1020
5 5 26 -3.4472 -0.4643
5 5 27 -0.2396 -19.1558
6 0 0 29.0015 -1.0569
6 0 1 -3.4770 5.4888
6 0 2 0.6283 0.6278
6 0 3 -18.9346 -17.4806
6 0 4 -21.5547 0.7957
6 0 5 -21.1083 19.2338
6 0 6 -0.9610 17.4648
6 0 7 9.7220 8.7906
6 0 8 6.8557 -0.6601
6 0 9 0.0203 1.4240
6 0 10 0.7645 2.0408
6 0 11 -5.0708 -4.0402
6 0 12 -5.6546 0.6644
6 0 13 -1.7493 1.0526
6 0 14 -0.6573 1.1075
6 0 15 -2.7254 -3.8405
6 0 16 -0.5802 -0.4258
6 0 17 2.5067 -1.7992
6 0 18 0.4520 -2.8258
6 0 19 0.8252 1.4908
6 0 20 -0.0561 0.3147
6 0 21 -2.1498 1.6060
6 0 22 -0.4052 -8.1228
6 0 23 -0.4967 -1.0494
6 0 24 4.7501 -0.2073
6 0 25 0.1914 0.3408
6 0 26 0.2441 8.2351
6 0 27 -3.0755 -2.9087
6 1 0 26.2083 -1.1198
6 1 1 10.7674 -7.3393
6 1 2 14.0637 -1.8470
6 1 3 4.3757 13.9921
6 1 4 -9.2223 6.1490
6 1 5 2.4076 -3.1779
6 1 6 -1.2245 9.9749
6 1 7 8.1598 -9.1202
6 1 8 3.2228 -6.3813
6 1 9 -2.0239 2.0877
6 1 10 2.2661 8.2347
6 1 11 3.7866 6.6343
6 1 12 1.9623 0.8141
6 1 13 2.4787 -1.0109
6 1 14 -2.4716 1.6629
6 1 15 -1.4921 1.0575
6 1 16 -3.1725 -1.9168
6 1 17 0.5646 5.1455
6 1 18 1.3566 -2.1101
6 1 19 -3.4974 -0.2011
6 1 20 3.5907 1.8512
6 1 21 -4.2305 0.2283
6 1 22 -2.6745 -3.8362
6 1 23 -11.7976 -9.3056
6 1 24 -3.4455 2.3290
6 1 25 -5.8789 3.2755
6 1 26 6.5587 1.8234
6 1 27 1.5723 7.8753
6 2 0 -25.8288 -0.0561
6 2 1 -2.2677 -12.5413
6 2 2 2.4709 -2.5109
6 2 3 17.2113 -1.9902
6 2 4 2.7047 9.5518
6 2 5 12.4835 -9.9770
6 2 6 -14.2959 -2.4519
6 2 7 -18.9803 2.3308
6 2 8 1.5818 -6.1582
6 2 9 1.9766 1.9017
6 2 10 3.6077 3.5479
6 2 11 1.2624 -2.5524
6 2 12 0.3662 -2.7645
6 2 13 1.5448 -3.1597
6 2 14 -0.8780 -3.2950
6 2 15 -1.3128 3.0557
6 2 16 0.8576 -0.7325
6 2 17 -0.8691 -4.4041
6 2 18 4.0797 2.9804
6 2 19 -3.0711 -4.3783
6 2 20 3.3361 4.2926
6 2 21 -0.6250 1.9809
6 2 22 1.0467 0.5839
6 2 23 -2.1558 2.8643
6 2 24 -8.7931 6.0774
6 2 25 6.9269 3.8073
6 2 26 -0.8691 7.5073
6 2 27 -3.0572 -10.4138
6 3 0 9.4840 -0.0447
6 3 1 -11.1561 6.0713
6 3 2 0.5057 -13.1512
6 3 3 7.0265 -0.2405
6 3 4 -8.6154 -16.4880
6 3 5 16.6519 10.2140
6 3 6 1.7954 6.0797
6 3 7 -8.7372 1.3658
6 3 8 3.5321 5.9886
6 3 9 4.7229 -9.7822
6 3 10 -2.3036 -1.6130
6 3 11 1.2131 4.3706
6 3 12 -4.6197 2.2237
6 3 13 3.2393 0.8539
6 3 14 -1.0401 -0.4623
6 3 15 -0.9914 -2.6719
6 3 16 -0.1950 0.5243
6 3 17 -2.0570 0.7515
6 3 18 -3.8025 -0.8580
6 3 19 3.5478 0.2747
6 3 20 -4.7523 -0.3235
6 3 21 -0.0353 -1.5550
6 3 22 0.5729 1.2953
6 3 23 4.9798 -1.1016
6 3 24 0.5425 -6.9109
6 3 25 9.9720 7.1278
6 3 26 2.0746 5.5428
6 3 27 11.5437 -1.4957
6 4 0 -0.2218 1.3278
6 4 1 0.3829 -0.3838
6 4 2 -10.2797 2.6268
6 4 3 0.7174 3.3332
6 4 4 0.1468 -6.9230
6 4 5 -4.2002 0.3502
6 4 6 16.6057 -1.5834
6 4 7 3.6276 -5.5850
6 4 8 -11.7454 2.2257
6 4 9 -2.0207 3.5616
6 4 10 2.5179 -5.1730
6 4 11 3.1145 3.0241
6 4 12 1.2260 -0.2945
6 4 13 1.4873 1.4371
6 4 14 2.5067 -0.4198
6 4 15 -0.8255 -2.1674
6 4 16 1.5596 1.3941
6 4 17 -3.0403 0.2800
6 4 18 3.9259 0.0081
6 4 19 3.4676 5.6833
6 4 20 -0.3791 -0.1638
6 4 21 0.6670 3.8368
6 4 22 -7.4162 1.7552
6 4 23 3.5377 -3.0990
6 4 24 3.3490 -5.1734
6 4 25 -7.0970 -8.3194
6 4 26 -6.9579 -8.0911
6 4 27 1.7322 -0.0876
6 5 0 -15.8969 0.6209
6 5 1 -5.4155 3.8420
6 5 2 -3.7948 9.0531
6 5 3 -7.4115 7.3047
6 5 4 16.4194 11.2321
6 5 5 -9.6225 -5.1344
6 5 6 6.8739 -3.4737
6 5 7 7.9476 -2.3437
6 5 8 -0.2974 -2.1948
6 5 9 -3.4168 2.8332
6 5 10 3.9592 3.0048
6 5 11 0.1516 -3.2440
6 5 12 -0.3101 -4.5943
6 5 13 -3.8023 -1.9578
6 5 14 -0.6838 -0.7637
6 5 15 -0.2096 0.6507
6 5 16 -3.9927 0.3144
6 5 17 1.0709 1.9882
6 5 18 -1.0537 -2.6782
6 5 19 2.1839 -2.1743
6 5 20 6.2577 4.1767
6 5 21 -0.5737 5.0973
6 5 22 3.2957 -1.0670
6 5 23 -1.4945 0.5708
6 5 24 4.5774 -1.4935
6 5 25 -0.3201 5.7160
6 5 26 -5.5273 -5.9181
6 6 0 17.0562 -0.8522
6 6 1 0.4970 4.8885
6 6 2 4.5545 0.1918
6 6 3 -0.8942 -15.6517
6 6 4 -1.3804 -0.5194
6 6 5 -1.0089 -1.1538
6 6 6 -14.5832 0.3642
6 6 7 -0.0550 -3.3418
6 6 8 2.5723 -0.7291
6 6 9 0.5053 -3.4060
6 6 10 -2.9656 1.0758
6 6 11 -0.2937 5.4586
6 6 12 2.3159 -0.4504
6 6 13 -1.2186 0.5988
6 6 14 -4.5337 -0.1899
6 6 15 -0.4097 3.5807
6 6 16 4.0596 -0.5579
6 6 17 0.6852 2.8279
6 6 18 3.6869 1.2085
6 6 19 -0.0523 -8.7539
6 6 20 6.2979 -0.2648
6 6 21 -0.9799 -0.0804
6 6 22 -0.3007 -0.3463
6 6 23 -0.3832 0.2897
6 6 24 -0.2891 -0.4345
6 6 25 0.5526 -0.7273
6 6 26 9.0355 0.8221
7 0 1 -11.8936 -12.0289
7 0 2 -13.3624 -0.2986
7 0 3 -5.9808 5.2607
7 0 4 -0.4931 -3.8486
7 0 5 11.3493 11.6037
7 0 6 25.2907 0.4523
7 0 7 13.2767 -13.6301
7 0 8 -0.1197 2.2175
7 0 9 0.1830 0.8124
7 0 10 -6.6409 -0.1982
7 0 11 1.3964 -1.2272
7 0 12 0.3758 0.2820
7 0 13 2.4680 2.1666
7 0 14 -4.0289 0.3321
7 0 15 1.4819 -1.5768
7 0 16 -0.5847 0.8606
7 0 17 -0.5873 -0.2347
7 0 18 -6.0709 -0.2484
7 0 19 -2.3659 2.1003
7 0 20 0.4710 0.9322
7 0 21 -1.8721 -1.8925
7 0 22 4.8771 0.3927
7 0 23 -2.7670 3.0046
7 0 24 -0.3566 -1.4635
7 0 25 -5.0127 -4.7838
7 0 26 -0.0220 -0.2870
7 0 27 0.7776 -1.1028
7 1 0 -4.4636 2.2231
7 1 1 -1.0127 -7.6916
7 1 2 1.9653 -0.6567
7 1 3 -14.4264 9.6622
7 1 4 3.7116 -13.7423
7 1 5 -6.1385 -11.0160
7 1 6 -12.1665 -3.7345
7 1 7 10.1322 -3.2593
7 1 8 -0.2402 -0.7182
7 1 9 2.9758 9.8091
7 1 10 2.3972 1.0148
7 1 11 -0.4225 -3.6194
7 1 12 0.5954 -7.7706
7 1 13 0.9273 -1.8738
7 1 14 -0.4922 2.0174
7 1 15 -2.4041 4.4183
7 1 16 2.4077 -0.8661
7 1 17 2.6402 2.5585
7 1 18 0.3011 -3.2056
7 1 19 -0.1653 1.0447
7 1 20 -2.7567 2.0042
7 1 21 1.9049 -5.8254
7 1 22 -4.0161 -1.1454
7 1 23 -0.3119 5.1637
7 1 24 -1.0056 17.3828
7 1 25 0.8322 -3.8069
7 1 26 3.2473 1.7501
7 1 27 -0.4638 -1.1546
7 2 0 -12.3980 0.5886
7 2 1 2.1903 13.6807
7 2 2 5.8137 2.5809
7 2 3 -1.4236 -4.2967
7 2 4 -3.9296 5.9489
7 2 5 -2.2194 4.0995
7 2 6 -19.1161 -1.8210
7 2 7 1.6278 5.2313
7 2 8 16.3772 -2.0685
7 2 9 1.7401 -1.9540
7 2 10 0.1138 2.4283
7 2 11 -6.8517 1.3891
7 2 12 -2.2512 -0.3839
7 2 13 -4.8013 -2.4634
7 2 14 1.1224 0.0542
7 2 15 -0.8933 2.2577
7 2 16 -0.9873 -0.2059
7 2 17 -0.6085 0.9514
7 2 18 -4.3310 0.5160
7 2 19 -2.2182 0.3526
7 2 20 -2.8349 -0.4301
7 2 21 -2.6564 0.1438
7 2 22 5.6291 -3.5073
7 2 23 0.9813 2.8219
7 2 24 5.9339 3.8558
7 2 25 11.9250 9.6032
7 2 26 -3.5146 -11.5996
7 2 27 2.0749 -2.5338
7 3 0 13.2317 -2.9455
7 3 1 -5.0530 -4.8562
7 3 2 6.2773 6.9226
7 3 3 -1.2737 -7.2859
7 3 4 -0.5176 -10.5341
7 3 5 3.4801 14.1215
7 3 6 0.0275 -7.0575
7 3 7 -6.6453 -7.6516
7 3 8 -1.6598 -4.6895
7 3 9 -2.3903 -6.9283
7 3 10 -1.6452 3.1291
7 3 11 1.5056 5.3458
7 3 12 2.3043 3.9319
7 3 13 1.8079 0.8462
7 3 14 -4.9991 -4.3264
7 3 15 1.7706 0.1415
7 3 16 -0.3758 2.3729
7 3 17 0.2865 3.5471
7 3 18 5.6883 1.8966
7 3 19 -4.6100 5.6177
7 3 20 0.1456 2.7402
7 3 21 -4.8460 -1.0422
7 3 22 2.8326 -4.1261
7 3 23 1.5844 -5.7948
7 3 24 -0.2915 -6.0044
7 3 25 -4.4722 4.2425
7 3 26 6.2443 -4.1150
7 4 0 -1.0266 -0.2020
7 4 1 7.3337 -2.7063
7 4 2 0.0650 0.7708
7 4 3 4.6978 10.9012
7 4 4 -3.0331 -7.1019
7 4 5 -7.4892 -6.3412
7 4 6 3.4978 7.8248
7 4 7 -6.1915 1.2923
7 4 8 -1.8839 6.2978
7 4 9 3.6267 1.9032
7 4 10 2.9117 -1.4664
7 4 11 1.2582 -3.7950
7 4 12 0.2854 0.1395
7 4 13 2.9713 1.9898
7 4 14 1.1069 -1.3367
7 4 15 -4.2140 -0.2244
7 4 16 -1.8322 1.5708
7 4 17 0.8146 -2.9377
7 4 18 7.5685 2.5204
7 4 19 2.2571 -3.7595
7 4 20 -0.5962 6.1662
7 4 21 -3.3576 1.5574
7 4 22 2.7945 -5.3061
7 4 23 3.1221 0.0836
7 4 24 -5.7635 1.2350
7 4 25 -6.8743 -3.8096
7 4 26 2.1572 11.2173
7 5 0 -17.5346 -1.3942
7 5 1 5.6233 6.6090
7 5 2 5.4338 -0.7072
7 5 3 10.2620 -1.8269
7 5 4 5.8229 13.7433
7 5 5 -1.0733 -13.3593
7 5 6 -2.7837 2.1438
7 5 7 0.9832 0.6070
7 5 8 3.9050 -2.7120
7 5 9 6.8205 -2.1661
7 5 10 -1.2462 -2.2486
7 5 11 -0.4250 -6.2361
7 5 12 -5.2767 -3.0942
7 5 13 -1.7273 3.4345
7 5 14 4.8574 3.1245
7 5 15 2.0666 1.4947
7 5 16 3.2806 2.1360
7 5 17 0.9965 -1.1150
7 5 18 -0.7692 -3.6419
7 5 19 5.3050 -2.7533
7 5 20 -1.7055 2.3675
7 5 21 -3.6156 -3.7655
7 5 22 1.2854 -0.5997
7 5 23 1.0206 -7.4927
7 5 24 -0.4430 0.8055
7 5 25 -0.3667 -3.2637
7 5 26 1.8027 -3.1782
7 6 0 5.8209 -0.3838
7 6 1 -11.9382 -2.6298
7 6 2 -3.0525 -9.3942
7 6 3 -0.8623 -8.7815
7 6 4 -5.6878 4.1112
7 6 5 2.7759 11.8346
7 6 6 -1.2080 -4.3124
7 6 7 -3.3847 1.5303
7 6 8 -3.6000 0.3355
7 6 9 -1.2648 -0.1706
7 6 10 -3.8977 -0.5042
7 6 11 2.3680 2.1001
7 6 12 4.1478 -3.7539
7 6 13 -6.3152 1.5016
7 6 14 1.2346 0.3697
7 6 15 4.0887 -3.8623
7 6 16 1.4748 -1.0999
7 6 17 2.1565 -3.2964
7 6 18 -3.7561 -1.8663
7 6 19 -0.1518 -4.1120
7 6 20 -1.9149 3.0195
7 6 21 -3.7209 -0.7926
7 6 22 -4.9064 3.7556
7 6 23 2.1896 2.0291
7 6 24 -0.0933 -6.0272
7 6 25 0.4350 0.4597
7 6 26 0.0474 0.5029
7 7 0 6.1188 2.6369
7 7 1 -1.1885 0.4193
7 7 2 -7.1927 0.2954
7 7 3 -0.4049 -1.9773
7 7 4 -3.8186 -3.1710
7 7 5 -0.0135 3.3108
7 7 6 6.6384 0.5285
7 7 7 -0.0919 -2.6323
7 7 8 -6.8640 1.5318
7 7 9 -0.8461 11.1152
7 7 10 -1.0329 0.7376
7 7 11 -0.6366 1.6426
7 7 12 8.1632 -2.2607
7 7 13 0.1214 -6.9764
7 7 14 -5.1169 0.2653
7 7 15 -0.0601 1.2003
7 7 16 -2.6160 1.2750
7 7 17 -0.7115 2.4752
7 7 18 0.3994 0.5742
7 7 19 -0.5901 3.0981
7 7 20 -2.5662 -1.6124
7 7 21 0.3543 3.7938
7 7 22 -8.3919 0.1953
7 7 23 -0.0100 8.1590
7 7 24 1.8118 0.8027
7 7 25 -0.6505 -10.8392
8 0 0 -2.5489 -1.4586
8 0 1 -1.9091 0.1054
8 0 2 0.1171 18.1722
8 0 3 2.1986 1.4257
8 0 4 -1.4851 1.0614
8 0 5 -0.8401 1.8099
8 0 6 -0.9875 -17.2273
8 0 7 -4.4410 -3.5102
8 0 8 -3.1364 -0.3639
8 0 9 -6.0644 4.9937
8 0 10 1.0307 -2.8273
8 0 11 -0.8198 -1.8200
8 0 12 1.3023 0.3269
8 0 13 -3.4026 4.1052
8 0 14 -0.7078 -2.9925
8 0 15 -0.1183 0.8908
8 0 16 5.1964 -0.4384
8 0 17 -0.8961 0.2411
8 0 18 0.5502 10.7420
8 0 19 -0.0326 -0.6088
8 0 20 -1.7866 0.4837
8 0 21 9.5861 -9.1598
8 0 22 -0.2903 1.4236
8 0 23 2.3050 2.9635
8 0 24 -6.0543 -0.3573
8 0 25 3.0248 -3.3883
8 0 26 0.1021 6.5980
8 0 27 2.8689 2.9120
8 1 0 -5.1920 0.4764
8 1 1 10.3569 -6.5644
8 1 2 -4.2640 5.2955
8 1 3 2.4359 0.2165
8 1 4 5.1345 -1.1818
8 1 5 -15.7015 9.4305
8 1 6 1.9169 5.0421
8 1 7 -1.1175 2.6239
8 1 8 6.5934 -0.8470
8 1 9 -0.7860 -5.0860
8 1 10 -2.1762 1.4691
8 1 11 -0.9530 -6.7330
8 1 12 -0.6558 -1.6458
8 1 13 -1.2859 4.6690
8 1 14 1.3529 5.5838
8 1 15 -3.3490 -2.9800
8 1 16 3.7396 1.6530
8 1 17 1.7626 -8.1243
8 1 18 1.3580 -1.0852
8 1 19 1.6282 5.1462
8 1 20 -6.3912 -1.6766
8 1 21 1.8249 2.5595
8 1 22 -1.0286 -4.2460
8 1 23 2.0081 11.7641
8 1 24 2.9846 4.4214
8 1 25 5.3715 -5.0152
8 1 26 -3.7395 -3.1634
8 1 27 2.7142 -0.4059
8 2 0 -3.1753 -0.0071
8 2 1 7.0120 9.1232
8 2 2 0.6181 -12.4070
8 2 3 0.5858 -0.7228
8 2 4 5.8213 9.7477
8 2 5 -1.3790 0.0405
8 2 6 6.5679 5.6525
8 2 7 2.6162 -1.1582
8 2 8 -5.3474 2.5207
8 2 9 1.2021 -5.1167
8 2 10 -7.3190 3.2375
8 2 11 3.3968 2.9079
8 2 12 3.1931 -0.2324
8 2 13 1.8572 -2.1933
8 2 14 -0.3957 6.4280
8 2 15 1.9037 -1.6983
8 2 16 -2.0572 4.8328
8 2 17 -0.6018 3.3511
8 2 18 -2.0669 0.3212
8 2 19 2.9665 -0.0354
8 2 20 0.8382 1.3340
8 2 21 -0.2089 0.3532
8 2 22 8.5880 -1.0186
8 2 23 0.6878 -8.5987
8 2 24 10.3968 -1.2351
8 2 25 1.5161 -0.8073
8 2 26 -1.4486 -8.4455
8 2 27 -9.2029 2.3709
8 3 0 -0.5635 -0.3500
8 3 1 -6.3801 -3.3504
8 3 2 -1.1089 -1.0356
8 3 3 -8.1599 -10.3310
8 3 4 -2.9266 1.5255
8 3 5 0.5632 0.2173
8 3 6 1.3088 -2.5779
8 3 7 1.5360 2.7914
8 3 8 -11.4719 5.0232
8 3 9 1.4253 11.6918
8 3 10 1.3776 -4.8232
8 3 11 -0.4455 1.8017
8 3 12 2.5025 -3.8540
8 3 13 0.9541 -1.6864
8 3 14 -0.2435 -3.8148
8 3 15 0.3259 6.2688
8 3 16 3.0011 -1.6655
8 3 17 8.5408 -0.1527
8 3 18 -0.6461 1.7011
8 3 19 3.5034 1.1761
8 3 20 -0.8076 1.0726
8 3 21 -2.0577 -5.0257
8 3 22 -1.9171 2.6009
8 3 23 -10.6920 -2.3097
8 3 24 -5.8221 -6.5247
8 3 25 2.4444 -3.7050
8 3 26 4.5144 7.3969
8 4 0 3.3417 2.1928
8 4 1 2.7800 0.9715
8 4 2 2.4802 1.8633
8 4 3 -5.1868 5.2839
8 4 4 -5.6659 -6.2808
8 4 5 -1.1276 1.8210
8 4 6 -1.0291 3.0417
8 4 7 10.1890 -1.6630
8 4 8 6.8049 -3.5651
8 4 9 -3.5232 2.4602
8 4 10 2.3865 -1.8893
8 4 11 -6.2912 -2.9165
8 4 12 -1.7339 1.5251
8 4 13 0.1647 -2.4297
8 4 14 2.7430 0.3658
8 4 15 -4.3095 -2.2896
8 4 16 -1.1104 -0.9981
8 4 17 4.4039 -1.8205
8 4 18 -2.5341 -9.1520
8 4 19 -1.0703 2.4724
8 4 20 -0.7092 -0.2463
8 4 21 7.9636 -0.3652
8 4 22 6.3507 3.9062
8 4 23 -8.6889 6.2755
8 4 24 -9.2267 4.1167
8 4 25 3.8842 -3.4996
8 4 26 1.7140 1.6477
8 5 0 5.3567 0.7119
8 5 1 8.2380 7.3317
8 5 2 7.3047 -7.1450
8 5 3 7.2952 1.5560
8 5 4 -0.3166 2.2624
8 5 5 3.3194 -2.9292
8 5 6 -7.0375 1.2499
8 5 7 1.8860 -2.0139
8 5 8 5.1031 -5.7035
8 5 9 -6.9221 -3.2442
8 5 10 -3.9435 2.2727
8 5 11 -2.9640 1.9565
8 5 12 -1.6177 3.7629
8 5 13 0.7518 0.6785
8 5 14 1.0503 -0.3708
8 5 15 4.6260 -2.7506
8 5 16 -3.3458 -3.5411
8 5 17 -4.7578 0.8510
8 5 18 -1.1813 1.4449
8 5 19 -6.8247 1.8675
8 5 20 -4.4032 -3.0179
8 5 21 -1.0607 -3.8664
8 5 22 4.5099 1.1385
8 5 23 5.4791 -2.6971
8 5 24 -7.0176 9.3762
8 5 25 -0.3762 7.0508
8 5 26 -4.8328 -1.3759
8 6 0 -9.9153 -1.2584
8 6 1 -7.9809 -8.5698
8 6 2 -1.4686 1.7112
8 6 3 -4.6954 -1.0088
8 6 4 2.0438 2.9610
8 6 5 6.7468 0.1109
8 6 6 5.2421 -3.8879
8 6 7 -3.8412 2.6079
8 6 8 2.9073 5.1343
8 6 9 -0.7909 0.2627
8 6 10 3.8336 1.8679
8 6 11 3.8951 -0.0710
8 6 12 0.0431 4.3829
8 6 13 0.0546 -2.5197
8 6 14 -0.3251 -3.3449
8 6 15 -0.5795 1.5253
8 6 16 0.0264 -3.4209
8 6 17 0.9443 -1.7282
8 6 18 -0.4520 1.0511
8 6 19 4.0733 3.5988
8 6 20 -1.9373 4.8035
8 6 21 -4.0568 -0.1958
8 6 22 -2.0087 1.5276
8 6 23 8.7058 -3.8645
8 6 24 1.6420 -7.8348
8 6 25 3.9205 5.3464
8 6 26 5.3137 4.2783
8 7 0 -3.9033 0.5628
8 7 1 -3.1361 5.0470
8 7 2 -0.4263 0.4076
8 7 3 -3.2071 5.9294
8 7 4 -5.7008 -1.0909
8 7 5 -1.8272 0.0408
8 7 6 1.6683 -2.0716
8 7 7 -1.2558 -2.3784
8 7 8 3.8186 3.9881
8 7 9 3.9158 1.6116
8 7 10 4.2249 -4.5739
8 7 11 5.0384 -4.9021
8 7 12 -5.0537 -3.5831
8 7 13 -0.7916 1.0683
8 7 14 -0.8529 3.1705
8 7 15 -2.4461 0.8113
8 7 16 2.0019 2.1271
8 7 17 -2.9791 -2.8768
8 7 18 -0.8613 -4.9695
8 7 19 -2.5059 0.4786
8 7 20 5.7913 -0.8068
8 7 21 -0.2871 5.4351
8 7 22 0.5839 1.5816
8 7 23 1.7929 6.9459
8 7 24 -2.9197 -10.1999
8 7 25 -2.1428 -2.9184
8 8 0 10.6519 -1.7644
8 8 1 -1.0164 2.2089
8 8 2 5.6149 0.5864
8 8 3 0.6528 -1.2334
8 8 4 4.3704 1.0241
8 8 5 0.9449 1.4744
8 8 6 -3.6158 0.5870
8 8 7 -1.4151 -4.1801
8 8 8 -5.2060 -1.7688
8 8 9 -1.4947 -0.5950
8 8 10 -4.3630 0.6831
8 8 11 0.5852 0.3771
8 8 12 -0.3627 0.8628
8 8 13 0.7311 -0.8109
8 8 14 1.2713 0.5665
8 8 15 -1.1344 -2.2388
8 8 16 -0.6461 -1.2424
8 8 17 -1.0349 7.4390
8 8 18 -5.1013 0.5391
8 8 19 0.3673 0.5070
8 8 20 3.4852 0.5278
8 8 21 0.3797 -9.0171
8 8 22 2.6575 0.3850
8 8 23 -0.5635 0.7490
8 8 24 9.0038 -0.7996
8 8 25 -0.5529 6.0602
9 0 1 1.1309 2.0075
9 0 2 -0.0344 -0.1499
9 0 3 5.7053 -5.4865
9 0 4 -0.2474 -3.2125
9 0 5 0.2650 0.2366
9 0 6 8.5383 0.1697
9 0 7 -2.4652 3.0359
9 0 8 0.4319 7.9786
9 0 9 0.1100 0.2013
9 0 10 -0.3700 0.1676
9 0 11 0.4997 -1.1180
9 0 12 -0.1979 -0.1949
9 0 13 -0.2213 -0.3374
9 0 14 6.4910 -0.1730
9 0 15 0.2618 0.0253
9 0 16 0.1450 -1.1237
9 0 17 2.4506 3.0195
9 0 18 -0.6773 0.3386
9 0 19 1.5822 -1.9473
9 0 20 -0.1843 -1.4286
9 0 21 -0.3551 -0.7582
9 0 22 -5.9941 -0.1199
9 0 23 -6.0754 6.3369
9 0 24 0.1739 -10.0024
9 0 25 1.6957 2.1392
9 0 26 -0.5998 0.2480
9 1 0 5.0975 -0.0709
9 1 1 -0.2661 2.4365
9 1 2 -6.4251 -2.5181
9 1 3 0.3912 -0.1592
9 1 4 -0.2652 -1.3407
9 1 5 -3.9040 -4.3587
9 1 6 5.5235 5.0321
9 1 7 7.8858 -8.5128
9 1 8 -2.2914 -3.2598
9 1 9 -3.0377 2.7542
9 1 10 -4.5682 -1.3248
9 1 11 -0.7778 1.6683
9 1 12 -0.1532 3.5922
9 1 13 -4.4138 -1.6999
9 1 14 0.7028 -0.3091
9 1 15 3.8556 -4.5814
9 1 16 0.0899 -2.8373
9 1 17 1.3300 -3.7801
9 1 18 -1.3967 -0.5877
9 1 19 -3.5824 0.7444
9 1 20 4.1204 0.7906
9 1 21 6.5083 -2.5128
9 1 22 1.4394 1.9518
9 1 23 3.7496 3.5297
9 1 24 5.2503 0.4096
9 1 25 -3.4641 -5.9458
9 1 26 -2.5273 -1.0766
9 2 0 13.5860 0.1511
9 2 1 1.6015 1.8031
9 2 2 1.8001 -4.3882
9 2 3 -2.9713 5.8740
9 2 4 -1.0173 3.4684
9 2 5 8.2569 -10.6187
9 2 6 -5.7055 0.3094
9 2 7 0.5047 0.5180
9 2 8 2.5284 -2.7681
9 2 9 1.1712 3.6962
9 2 10 3.5340 1.7796
9 2 11 3.8131 -1.8996
9 2 12 2.0300 0.5389
9 2 13 1.2434 1.2186
9 2 14 -6.7824 -0.5290
9 2 15 3.4354 1.8196
9 2 16 -1.2967 -0.0677
9 2 17 0.5020 -1.2332
9 2 18 6.1064 -3.2909
9 2 19 0.9278 -2.1939
9 2 20 -7.9747 2.2148
9 2 21 7.1169 -1.2760
9 2 22 -7.7174 -9.2876
9 2 23 -5.4525 -6.9557
9 2 24 -2.5970 0.6619
9 2 25 -2.2071 -1.8722
9 2 26 -6.7907 4.0974
9 3 0 -4.9766 -0.1438
9 3 1 2.7672 -3.2287
9 3 2 -2.4785 8.4870
9 3 3 -2.8968 3.1829
9 3 4 -4.0418 8.8459
9 3 5 4.5093 4.5237
9 3 6 0.0142 -2.2793
9 3 7 -5.9631 5.5723
9 3 8 7.5984 0.4173
9 3 9 2.6488 -2.4960
9 3 10 1.6048 -2.7703
9 3 11 -2.9322 0.8227
9 3 12 1.6725 -2.1758
9 3 13 -0.1206 -1.2152
9 3 14 3.0670 0.6911
9 3 15 -2.0414 1.3921
9 3 16 3.9328 -3.4583
9 3 17 -5.6054 -4.1429
9 3 18 -2.5234 -5.3666
9 3 19 6.5735 -2.3602
9 3 20 -2.7285 -7.2505
9 3 21 5.1313 9.9961
9 3 22 1.8234 8.4607
9 3 23 -8.2540 2.8157
9 3 24 -0.8266 0.9115
9 3 25 4.6036 6.6842
9 3 26 -2.8459 1.4491
9 4 0 -1.1202 0.4199
9 4 1 4.7761 -8.5368
9 4 2 3.7174 -2.0866
9 4 3 0.7196 -2.6280
9 4 4 4.8971 -1.9489
9 4 5 -0.0470 8.5356
9 4 6 3.5732 -2.6366
9 4 7 -0.2442 -2.5842
9 4 8 -4.7003 1.2518
9 4 9 -0.0932 -3.7321
9 4 10 -1.4026 0.2618
9 4 11 -2.3960 1.4310
9 4 12 -0.3975 5.4838
9 4 13 0.6372 -2.1652
9 4 14 -6.3283 -0.6759
9 4 15 0.9455 -1.9463
9 4 16 1.3865 4.2329
9 4 17 -8.2614 4.9521
9 4 18 -8.7411 3.7940
9 4 19 -7.0966 3.7863
9 4 20 8.4121 -10.6810
9 4 21 3.2068 -4.5136
9 4 22 4.8143 -4.7913
9 4 23 2.5405 1.3505
9 4 24 3.5027 2.1886
9 4 25 0.2925 2.5536
9 4 26 1.9302 -4.2596
9 5 0 -0.1062 0.0245
9 5 1 -4.5529 -0.8386
9 5 2 -2.0017 -10.6932
9 5 3 -1.4891 -6.5201
9 5 4 0.5267 -8.7056
9 5 5 -2.4388 -2.0560
9 5 6 1.5178 -2.7391
9 5 7 0.9897 -0.1800
9 5 8 -6.5864 1.3097
9 5 9 -2.6038 2.9019
9 5 10 2.2653 3.3721
9 5 11 3.1141 -3.6840
9 5 12 0.1329 2.9518
9 5 13 1.2249 3.5021
9 5 14 -2.2173 -2.1804
9 5 15 -4.8582 0.7009
9 5 16 3.0544 -2.0473
9 5 17 5.6931 5.0947
9 5 18 2.3293 10.7701
9 5 19 -1.8434 4.0895
9 5 20 -4.4450 1.9495
9 5 21 -5.6822 0.3962
9 5 22 1.4082 -3.4006
9 5 23 2.4707 -1.2842
9 5 24 4.2073 2.9130
9 5 25 3.8343 1.9019
9 6 0 -4.0789 -0.2127
9 6 1 1.5237 10.1556
9 6 2 -4.7806 13.1640
9 6 3 -2.9004 1.6661
9 6 4 -0.1684 -1.5058
9 6 5 -0.6686 -6.5645
9 6 6 -3.7946 -0.4224
9 6 7 0.3311 -1.5797
9 6 8 0.2342 2.6342
9 6 9 2.8123 -4.0029
9 6 10 0.4867 1.5238
9 6 11 4.6210 -1.1970
9 6 12 -3.6432 -7.3458
9 6 13 2.1263 -0.2725
9 6 14 -0.4670 2.8827
9 6 15 -6.0059 2.3313
9 6 16 -1.3221 -1.2700
9 6 17 0.2202 -7.6363
9 6 18 2.6035 -4.4269
9 6 19 3.9001 4.6767
9 6 20 -1.1969 3.3382
9 6 21 -3.0562 -0.9799
9 6 22 2.5325 2.1937
9 6 23 -1.3317 -6.5887
9 6 24 0.6862 -5.9236
9 6 25 1.9641 -3.6248
9 7 0 6.1379 0.0664
9 7 1 5.5755 -3.9487
9 7 2 7.8006 4.8749
9 7 3 -1.6728 5.5157
9 7 4 1.7159 2.5638
9 7 5 2.0369 4.2842
9 7 6 -1.9679 0.7410
9 7 7 -0.1000 -1.5601
9 7 8 1.1012 0.5980
9 7 9 1.9384 -3.1918
9 7 10 -2.0901 -6.2495
9 7 11 -6.6693 5.6943
9 7 12 2.2108 -3.6651
9 7 13 1.2940 5.0116
9 7 14 2.9099 0.3754
9 7 15 5.0307 -3.7944
9 7 16 -5.1453 7.2503
9 7 17 -4.2667 -2.5210
9 7 18 -1.7028 2.3627
9 7 19 0.5774 -0.7996
9 7 20 4.7343 3.2114
9 7 21 1.0657 0.0924
9 7 22 -3.5842 -1.8566
9 7 23 -2.9894 -3.8027
9 7 24 -2.3574 2.8544
9 8 0 -0.9597 -0.2764
9 8 1 -1.1062 -4.3575
9 8 2 -2.2925 -4.6681
9 8 3 6.3182 -3.2008
9 8 4 0.7775 1.1175
9 8 5 -0.1009 0.3966
9 8 6 0.9528 1.9435
9 8 7 -2.5914 2.6895
9 8 8 -3.7460 -0.9519
9 8 9 2.0729 6.3732
9 8 10 3.9076 -2.5123
9 8 11 -3.0098 -0.5835
9 8 12 1.5387 1.5745
9 8 13 -1.7018 -3.7013
9 8 14 -4.1964 1.2032
9 8 15 4.0265 0.8972
9 8 16 0.1486 -0.5306
9 8 17 -1.2591 5.8783
9 8 18 3.1696 -0.3428
9 8 19 4.9315 -0.9214
9 8 20 1.0120 -7.0776
9 8 21 -1.4210 4.1139
9 8 22 -6.4414 3.0402
9 8 23 0.4338 -4.2404
9 8 24 0.9943 3.5544
9 9 0 -2.8905 -0.1344
9 9 1 -0.3696 0.6122
9 9 2 -6.2473 0.7769
9 9 3 -0.4812 1.4550
9 9 4 2.1972 -0.0931
9 9 5 -0.7192 -2.7751
9 9 6 5.6709 1.2684
9 9 7 0.2666 6.2286
9 9 8 -1.3153 -0.6677
9 9 9 0.0563 1.1457
9 9 10 5.9602 0.0983
9 9 11 -0.6926 -7.4264
9 9 12 -4.9374 0.0766
9 9 13 -0.2512 3.7829
9 9 14 -2.8425 1.1549
9 9 15 0.2455 10.8888
9 9 16 11.5166 -0.3666
9 9 17 -0.1823 -6.3475
9 9 18 -5.0646 -0.1016
9 9 19 -0.5551 1.3098
9 9 20 5.9141 -0.1095
9 9 21 -0.0446 -4.1806
9 9 22 3.4767 0.9327
9 9 23 0.1710 3.8756
10 0 0 -0.6455 1.6188
10 0 1 -1.6754 -0.0791
10 0 2 -0.8933 1.0167
10 0 3 1.4611 1.1583
10 0 4 -1.0420 -0.9449
10 0 5 1.9513 -0.9961
10 0 6 1.2253 4.1718
10 0 7 -1.6406 -1.8106
10 0 8 -3.2904 0.8241
10 0 9 2.8353 -3.5079
10 0 10 -0.6926 -6.6756
10 0 11 2.2765 1.6196
10 0 12 -3.2215 -0.6805
10 0 13 1.3913 -0.8574
10 0 14 0.5409 -0.0560
10 0 15 0.1942 0.7840
10 0 16 -3.1415 0.7057
10 0 17 -4.1853 3.9757
10 0 18 -0.5229 -11.9341
10 0 19 -0.4665 -1.1198
10 0 20 6.9895 -0.4650
10 0 21 2.3510 -1.9459
10 0 22 0.2573 6.6069
10 0 23 -2.7119 -2.2464
10 0 24 7.0925 0.3674
10 0 25 -1.5113 1.0837
10 1 0 0.9970 1.0708
10 1 1 -2.3474 -3.2060
10 1 2 -2.7413 -0.0862
10 1 3 -0.5152 0.0053
10 1 4 1.0708 -2.0077
10 1 5 1.4520 0.8748
10 1 6 -1.4951 -3.6262
10 1 7 0.6142 3.3491
10 1 8 -7.6963 1.2182
10 1 9 -5.5419 6.6486
10 1 10 1.3154 -0.2308
10 1 11 -0.5046 2.4830
10 1 12 -0.5268 1.2770
10 1 13 -1.1390 0.2003
10 1 14 -0.1026 0.3314
10 1 15 0.4121 -0.6215
10 1 16 1.1653 -2.4810
10 1 17 -9.3280 6.3195
10 1 18 -2.9338 3.9047
10 1 19 -7.8516 0.5209
10 1 20 0.0378 -6.0173
10 1 21 0.7760 -3.6128
10 1 22 -5.9250 -5.8491
10 1 23 -0.3796 4.4323
10 1 24 -6.0909 -5.2525
10 1 25 -1.5353 -5.7439
10 2 0 3.6552 -0.4852
10 2 1 -1.1444 -4.8754
10 2 2 -1.2640 -1.6779
10 2 3 -3.1753 2.4703
10 2 4 -0.3278 -7.3886
10 2 5 1.6125 -0.5173
10 2 6 -2.0452 -4.7509
10 2 7 1.2961 2.4605
10 2 8 5.3030 2.6058
10 2 9 2.7726 -1.8072
10 2 10 0.9275 1.2716
10 2 11 0.2074 -4.0870
10 2 12 -0.4839 -1.5472
10 2 13 -0.6333 -0.1667
10 2 14 1.2366 -0.4967
10 2 15 -1.6996 3.4603
10 2 16 1.9489 0.3557
10 2 17 2.5709 -6.1296
10 2 18 3.2759 6.2107
10 2 19 -6.3865 3.1342
10 2 20 1.4484 4.7136
10 2 21 -2.5361 5.1695
10 2 22 -1.2778 -0.1391
10 2 23 -7.4313 10.1028
10 2 24 2.7690 12.1506
10 2 25 -1.5232 2.7428
10 3 0 -2.0645 0.3098
10 3 1 2.7515 7.6986
10 3 2 -0.9212 -0.0441
10 3 3 5.4319 5.2390
10 3 4 4.6276 2.0724
10 3 5 -1.3934 -1.5456
10 3 6 4.2697 -2.8899
10 3 7 2.4174 -11.2657
10 3 8 2.2193 -1.1377
10 3 9 -0.4818 -4.8074
10 3 10 -0.2131 1.8310
10 3 11 -0.4400 2.9874
10 3 12 0.0378 -1.5806
10 3 13 -1.4484 -3.3178
10 3 14 2.9579 3.0352
10 3 15 0.1554 -4.1838
10 3 16 -5.1560 2.4862
10 3 17 -0.5132 0.3142
10 3 18 -2.4572 0.0321
10 3 19 0.9437 -4.4277
10 3 20 2.0184 -1.2648
10 3 21 5.5248 -0.1425
10 3 22 4.1511 0.4941
10 3 23 4.3123 -9.6007
10 3 24 4.6927 6.8663
10 3 25 3.8569 3.2851
10 4 0 -1.1445 -2.2100
10 4 1 -3.6352 0.3134
10 4 2 -4.5051 -1.9131
10 4 3 -3.5315 -4.9273
10 4 4 3.7581 8.6209
10 4 5 -5.7504 0.5103
10 4 6 -5.9203 0.4138
10 4 7 -1.4873 0.8394
10 4 8 -5.8506 -5.8756
10 4 9 -0.0419 1.0370
10 4 10 -0.3578 -1.3936
10 4 11 3.7184 3.1875
10 4 12 2.3152 5.1619
10 4 13 -0.8141 -3.1271
10 4 14 -2.1891 -0.8313
10 4 15 8.1595 2.7888
10 4 16 -0.1640 -0.8084
10 4 17 1.6350 6.8154
10 4 18 5.1161 3.4076
10 4 19 3.5362 -3.8154
10 4 20 0.4348 -5.1495
10 4 21 -8.4104 -8.1689
10 4 22 -5.7847 -3.7537
10 4 23 -1.4406 1.2116
10 4 24 -2.5694 -2.2519
10 4 25 1.6739 -2.4308
10 5 0 8.2746 -0.4918
10 5 1 -3.6927 0.1510
10 5 2 -1.3775 1.6448
10 5 3 -2.6770 -3.6178
10 5 4 -4.8011 2.5732
10 5 5 3.2456 4.7471
10 5 6 1.3236 3.6326
10 5 7 -7.6740 8.3165
10 5 8 1.5927 3.0407
10 5 9 -1.7931 0.9301
10 5 10 0.0403 -3.4772
10 5 11 0.0861 -4.8259
10 5 12 -2.6010 1.7466
10 5 13 3.8331 3.7295
10 5 14 -2.1809 -2.1827
10 5 15 -2.4302 2.5879
10 5 16 3.4070 -1.1860
10 5 17 -1.1719 -0.7423
10 5 18 1.9329 -0.1580
10 5 19 -3.9644 -1.0428
10 5 20 -1.1238 4.0129
10 5 21 3.7193 1.4732
10 5 22 4.8064 -1.4393
10 5 23 -1.2957 -0.1016
10 5 24 -0.6463 -2.5805
10 5 25 4.2598 -2.1644
10 6 0 8.0780 0.6937
10 6 1 8.3253 0.5629
10 6 2 -3.2485 0.1546
10 6 3 4.5862 0.6358
10 6 4 -1.1175 -5.1219
10 6 5 -2.4514 3.0933
10 6 6 2.6123 2.2477
10 6 7 3.1848 0.8491
10 6 8 1.0802 2.7317
10 6 9 3.1315 0.1302
10 6 10 -5.0517 1.2045
10 6 11 -4.3578 -0.6679
10 6 12 -1.7266 -7.0965
10 6 13 -4.7663 5.9510
10 6 14 2.7863 1.9621
10 6 15 4.1551 2.2004
10 6 16 1.5637 -0.3065
10 6 17 -0.9326 1.2210
10 6 18 0.4526 9.2173
10 6 19 -0.0640 3.2611
10 6 20 -6.3664 1.1563
10 6 21 4.5594 0.5039
10 6 22 -0.5597 -1.6516
10 6 23 -0.2157 -4.8770
10 6 24 -6.7456 0.1691
10 7 0 -4.1646 0.3928
10 7 1 4.1171 -2.9911
10 7 2 -0.4519 -2.9811
10 7 3 -0.9276 -0.8551
10 7 4 10.1913 1.0043
10 7 5 -0.0258 -2.3806
10 7 6 -0.7371 -0.9900
10 7 7 3.3944 -2.4682
10 7 8 0.9898 0.0495
10 7 9 2.4000 -2.3270
10 7 10 -1.5042 3.4689
10 7 11 -1.9254 1.2777
10 7 12 7.4911 4.8829
10 7 13 -2.8057 -4.7437
10 7 14 -4.6187 -6.4879
10 7 15 -0.6319 1.0679
10 7 16 1.1265 -4.7631
10 7 17 4.7450 -3.6553
10 7 18 1.5336 5.5657
10 7 19 9.5634 -0.9411
10 7 20 3.2585 -0.8758
10 7 21 -10.7121 5.6585
10 7 22 -0.5990 -4.1439
10 7 23 4.9987 8.8167
10 7 24 2.5548 6.8375
10 8 0 0.2918 1.4893
10 8 1 -6.0172 0.2750
10 8 2 2.5546 -5.0984
10 8 3 -1.4705 -2.4484
10 8 4 -3.9459 -3.8189
10 8 5 2.8500 -4.7056
10 8 6 -0.1079 0.8625
10 8 7 -1.1214 -0.2048
10 8 8 1.4642 -0.0026
10 8 9 3.8884 -0.8650
10 8 10 1.4340 -5.2339
10 8 11 -0.5841 1.1210
10 8 12 -4.3394 1.5925
10 8 13 2.2386 3.2365
10 8 14 3.5225 2.7006
10 8 15 -8.5123 3.0456
10 8 16 1.9130 2.2448
10 8 17 2.2111 -6.3700
10 8 18 -2.1891 -3.6969
10 8 19 1.4324 -5.3213
10 8 20 3.6824 -0.5200
10 8 21 -4.9137 1.5504
10 8 22 -0.1004 1.3593
10 8 23 4.2073 -4.9393
10 9 0 0.2905 0.7374
10 9 1 -0.9211 1.2814
10 9 2 -2.4715 4.7246
10 9 3 1.4268 1.2431
10 9 4 -3.5020 -0.4583
10 9 5 -1.0887 -5.2965
10 9 6 -0.0381 2.8471
10 9 7 -1.7336 -1.0836
10 9 8 0.4324 -1.7776
10 9 9 0.1806 0.3448
10 9 10 1.5545 -5.8948
10 9 11 -1.3578 0.1767
10 9 12 1.9151 4.7237
10 9 13 0.0654 0.0697
10 9 14 10.5931 4.0322
10 9 15 7.0981 -7.2216
10 9 16 -1.6925 -2.4618
10 9 17 -1.3646 -1.8689
10 9 18 -7.1157 0.8800
10 9 19 2.1083 7.1483
10 9 20 -1.1998 -5.0261
10 9 21 3.0566 -2.8094
10 9 22 -5.4196 2.8683
10 10 0 -4.8185 -1.1477
10 10 1 0.8542 -0.7313
10 10 2 -6.7753 0.5368
10 10 3 -0.4412 4.7612
10 10 4 -1.7057 0.5537
10 10 5 -0.8000 0.7433
10 10 6 -5.2541 0.5388
10 10 7 -0.1215 3.4519
10 10 8 -1.5439 -0.9534
10 10 9 0.7814 3.6581
10 10 10 -2.2186 0.7657
10 10 11 -0.1161 -12.6818
10 10 12 0.5025 0.5136
10 10 13 -1.0150 -3.8599
10 10 14 -8.0235 0.3776
10 10 15 -0.3162 -2.3061
10 10 16 -3.6313 -0.8454
10 10 17 0.8409 3.0910
10 10 18 5.1055 0.6682
10 10 19 0.1137 8.4910
10 10 20 8.8591 0.4918
10 10 21 -0.9525 2.1534
10 10 22 -2.1327 0.2824
11 0 1 2.6371 2.9164
11 0 2 12.0778 0.0857
11 0 3 -0.9307 1.2188
11 0 4 0.3147 3.6339
11 0 5 1.1571 1.1590
11 0 6 -4.8674 -0.2371
11 0 7 2.4987 -2.5319
11 0 8 0.2929 -2.6887
11 0 9 -3.1017 -3.4186
11 0 10 4.5674 0.1325
11 0 11 -4.7997 4.8239
11 0 12 -0.1902 4.3989
11 0 13 -1.9057 -1.2534
11 0 14 -0.4269 -0.1456
11 0 15 3.3561 -3.7887
11 0 16 0.3433 -2.4583
11 0 17 2.7730 2.4144
11 0 18 3.9821 0.1630
11 0 19 -3.5416 3.9773
11 0 20 -0.2892 -1.6125
11 0 21 -3.0635 -2.6279
11 0 22 -7.9648 -0.2782
11 0 23 4.2207 -4.6899
11 0 24 0.1755 -1.6264
11 0 25 0.6638 0.6246
11 1 0 -2.6310 -1.9012
11 1 1 -5.8120 -2.5452
11 1 2 0.2554 4.0281
11 1 3 3.4924 -8.4956
11 1 4 0.9192 4.3518
11 1 5 -1.4053 -0.0855
11 1 6 -0.8676 3.8718
11 1 7 -5.9106 7.2166
11 1 8 1.2200 1.1970
11 1 9 -0.0848 1.6427
11 1 10 2.2124 0.4781
11 1 11 4.4661 -4.6246
11 1 12 1.2110 3.4501
11 1 13 5.2951 1.0176
11 1 14 -2.5937 0.1377
11 1 15 0.6722 1.0498
11 1 16 -1.5070 -1.2405
11 1 17 -3.0468 0.0800
11 1 18 9.0955 6.8742
11 1 19 -2.1800 -2.5395
11 1 20 1.3648 3.0756
11 1 21 -6.6830 2.1938
11 1 22 -0.5154 5.4785
11 1 23 -5.2411 6.6019
11 1 24 3.3253 -5.3776
11 1 25 0.7226 1.3306
11 2 0 -0.2230 -0.7308
11 2 1 -1.2008 -5.0464
11 2 2 -6.6373 4.7477
11 2 3 0.4943 -0.1723
11 2 4 -2.9726 -4.6200
11 2 5 1.7086 2.9172
11 2 6 0.4761 -0.1863
11 2 7 -0.2661 5.9348
11 2 8 3.4049 -1.4876
11 2 9 -1.2104 -0.6814
11 2 10 -9.5369 -0.9285
11 2 11 -1.5332 -0.5399
11 2 12 -3.7683 -6.0541
11 2 13 -0.6085 1.2818
11 2 14 -2.0419 -1.7111
11 2 15 -1.0525 3.7461
11 2 16 3.7600 -0.4642
11 2 17 2.4130 -3.2461
11 2 18 -4.0953 3.2261
11 2 19 8.0624 -1.5194
11 2 20 2.5247 8.7332
11 2 21 2.4191 -3.2042
11 2 22 -0.5042 3.0554
11 2 23 6.5989 0.9308
11 2 24 6.3074 -0.1945
11 3 0 1.7782 2.3205
11 3 1 1.6547 0.7476
11 3 2 5.0611 -5.3468
11 3 3 3.0289 5.2332
11 3 4 1.2815 -6.7501
11 3 5 -1.6592 -5.1775
11 3 6 2.6106 -4.4494
11 3 7 -4.6187 -4.5380
11 3 8 -3.2839 7.2201
11 3 9 1.9294 0.8424
11 3 10 0.1957 5.1081
11 3 11 -2.6161 4.6990
11 3 12 0.2590 -0.0808
11 3 13 0.4491 0.7298
11 3 14 -1.1491 -0.1082
11 3 15 -5.1352 -4.7474
11 3 16 3.8094 3.9365
11 3 17 0.3399 3.1882
11 3 18 -1.9679 -7.1035
11 3 19 3.4422 -0.9958
11 3 20 0.3263 1.5714
11 3 21 1.8117 5.2701
11 3 22 -9.9431 -6.1281
11 3 23 -3.6848 2.1890
11 3 24 -3.5080 -0.3542
11 3 25 2.9512 -3.2738
11 4 0 -2.4420 0.4830
11 4 1 -3.2548 0.7364
11 4 2 1.0769 -0.4359
11 4 3 1.7828 1.4960
11 4 4 2.1617 6.9641
11 4 5 -1.1462 -5.7644
11 4 6 2.4607 3.4508
11 4 7 3.0477 -0.2737
11 4 8 0.1163 0.1799
11 4 9 6.3686 3.1065
11 4 10 3.8682 -3.9254
11 4 11 4.4339 3.1663
11 4 12 -0.5119 -0.6197
11 4 13 0.9972 -3.8774
11 4 14 2.0946 2.9262
11 4 15 -1.6741 -6.4835
11 4 16 -1.8149 -1.6525
11 4 17 3.8584 -2.0357
11 4 18 0.9269 -4.1304
11 4 19 -1.8888 -8.9177
11 4 20 -5.4060 -1.4812
11 4 21 -1.1408 6.3865
11 4 22 2.4213 11.5681
11 4 23 -3.8828 8.4079
11 4 24 -0.5754 0.4208
11 5 0 -1.8778 0.9109
11 5 1 -4.0248 -3.9076
11 5 2 -2.7586 0.6832
11 5 3 -0.1379 -1.9587
11 5 4 -0.9656 1.1481
11 5 5 4.8641 -0.5897
11 5 6 -3.5481 -2.4560
11 5 7 3.0239 -1.8354
11 5 8 1.0259 -2.9411
11 5 9 0.0569 -2.1590
11 5 10 0.0978 -3.6660
11 5 11 -3.7489 -1.5295
11 5 12 4.2722 2.9208
11 5 13 -0.5128 0.4246
11 5 14 -1.4749 0.9562
11 5 15 1.7830 5.3122
11 5 16 -2.5384 -5.3293
11 5 17 3.1899 1.5667
11 5 18 -3.1193 0.0661
11 5 19 4.2036 -1.0914
11 5 20 5.4296 -3.3558
11 5 21 6.7865 -5.5705
11 5 22 2.4308 -4.1411
11 5 23 -4.1456 1.0372
11 5 24 1.3551 -0.5838
11 6 0 1.5881 0.9806
11 6 1 -4.4990 3.0329
11 6 2 -4.3517 0.2130
11 6 3 1.9185 5.5618
11 6 4 0.0069 -1.4815
11 6 5 -1.7689 3.8747
11 6 6 -0.2064 -1.0704
11 6 7 -0.9756 -1.3202
11 6 8 0.4155 -4.0457
11 6 9 -6.4234 3.4185
11 6 10 -2.3523 2.4488
11 6 11 -1.6050 -0.1546
11 6 12 0.6942 3.9412
11 6 13 -0.9306 1.2630
11 6 14 6.8272 -0.2018
11 6 15 -1.4323 0.7786
11 6 16 0.6634 -4.1096
11 6 17 -5.5669 4.0168
11 6 18 1.5012 -3.8768
11 6 19 0.7910 -2.1516
11 6 20 2.3685 -6.9832
11 6 21 -0.2621 -0.9898
11 6 22 3.4383 -4.7815
11 6 23 -4.2457 2.9069
11 7 0 1.4176 -2.3033
11 7 1 -3.4655 -0.0573
11 7 2 -2.2448 -0.4170
11 7 3 1.6407 0.8303
11 7 4 2.2102 0.2196
11 7 5 -3.0444 -3.3421
11 7 6 -2.2362 1.0861
11 7 7 -0.7542 3.6722
11 7 8 -0.0799 -0.6420
11 7 9 -0.2785 -1.0880
11 7 10 -2.3220 0.2595
11 7 11 4.7665 2.8220
11 7 12 0.0612 1.5314
11 7 13 -1.4286 -4.7309
11 7 14 -4.6335 2.7632
11 7 15 1.8119 1.7343
11 7 16 1.7661 2.5019
11 7 17 -6.1710 4.7211
11 7 18 -3.8422 2.2217
11 7 19 1.7647 -4.7062
11 7 20 -4.1571 5.9118
11 7 21 -7.2961 -8.7211
11 7 22 14.1573 4.7820
11 7 23 9.5155 -0.6472
11 8 0 1.5191 -0.2682
11 8 1 -3.5759 -2.5881
11 8 2 -1.1848 2.7141
11 8 3 -6.0939 1.8009
11 8 4 -1.9973 0.8450
11 8 5 0.8399 1.6904
11 8 6 1.8074 3.8383
11 8 7 0.1172 0.1369
11 8 8 2.3882 -1.4049
11 8 9 1.3051 -1.9816
11 8 10 -0.3735 -1.4902
11 8 11 -7.5891 -0.6292
11 8 12 0.4194 -0.0447
11 8 13 8.8168 1.9217
11 8 14 -1.3958 0.7653
11 8 15 0.9119 -2.2247
11 8 16 9.0315 -0.1828
11 8 17 0.2019 -0.2873
11 8 18 -5.2597 0.7914
11 8 19 0.6024 -0.0764
11 8 20 -5.1115 1.6565
11 8 21 0.6445 -1.5157
11 8 22 -8.4392 -7.3058
11 9 0 6.0071 -0.0722
11 9 1 2.8610 0.9821
11 9 2 2.2579 0.2335
11 9 3 1.2571 1.4675
11 9 4 -1.3471 -1.0491
11 9 5 4.5340 0.9167
11 9 6 -3.7459 3.8913
11 9 7 3.5766 -0.6155
11 9 8 -0.9895 -2.8258
11 9 9 -0.6036 -2.6283
11 9 10 2.8397 2.5927
11 9 11 -0.0599 1.7580
11 9 12 -4.1744 -1.7602
11 9 13 0.5145 -5.3513
11 9 14 0.1026 -5.5255
11 9 15 -4.4007 -8.2615
11 9 16 -3.4029 -1.2281
11 9 17 -0.4160 1.7513
11 9 18 2.7657 7.1166
11 9 19 -2.7377 0.6294
11 9 20 0.5826 -6.1020
11 9 21 -4.0121 8.4311
11 9 22 -4.7325 -9.4874
11 10 0 -0.8949 -0.5234
11 10 1 0.8291 4.5086
11 10 2 2.4066 2.4030
11 10 3 3.4458 2.2585
11 10 4 -0.5382 -0.7979
11 10 5 2.9755 1.7878
11 10 6 3.8053 -1.3645
11 10 7 0.0080 6.5209
11 10 8 2.7929 -0.0163
11 10 9 -3.2602 -0.2075
11 10 10 0.5805 -4.4243
11 10 11 4.1296 0.7752
11 10 12 -3.4968 8.7311
11 10 13 -2.8767 3.3622
11 10 14 -6.7635 3.6223
11 10 15 -1.3572 2.9886
11 10 16 -3.7078 1.8773
11 10 17 4.7879 -2.5628
11 10 18 3.4948 4.4061
11 10 19 4.8568 -1.9644
11 10 20 0.7833 0.6220
11 10 21 -5.2259 -0.4803
11 11 0 4.1611 1.8369
11 11 1 -0.3103 -7.5623
11 11 2 6.1972 0.4612
11 11 3 -0.4509 -1.7405
11 11 4 -4.5952 -1.9627
11 11 5 -0.4436 -0.0550
11 11 6 4.9843 0.4146
11 11 7 0.4885 -1.7558
11 11 8 3.9089 1.4157
11 11 9 0.2291 -3.4252
11 11 10 -0.3460 0.9111
11 11 11 -0.7289 -8.1053
11 11 12 2.0764 -1.5175
11 11 13 -0.1928 9.1744
11 11 14 2.4502 0.2241
11 11 15 0.4307 9.2080
11 11 16 -1.8411 1.1059
11 11 17 -0.0392 2.4660
11 11 18 -1.3943 0.7549
11 11 19 -0.5682 3.3165
11 11 20 1.2318 -0.9721
12 0 0 -8.4320 0.8250
12 0 1 0.9179 0.1787
12 0 2 -0.0416 -10.0342
12 0 3 -5.3632 -4.2223
12 0 4 4.7858 -0.3029
12 0 5 -0.9045 0.0101
12 0 6 0.1830 -4.2051
12 0 7 0.3931 -1.0799
12 0 8 -4.4496 0.0645
12 0 9 2.6716 -1.9075
12 0 10 -0.5102 3.3832
12 0 11 0.2977 1.5739
12 0 12 4.3696 0.0164
12 0 13 2.2401 -3.2052
12 0 14 0.2360 3.2477
12 0 15 -4.7418 -5.5857
12 0 16 -0.0012 0.2321
12 0 17 2.8953 -2.1818
12 0 18 -0.0238 0.8354
12 0 19 -1.3774 -0.6630
12 0 20 5.0294 -0.1948
12 0 21 -1.5439 0.8083
12 0 22 -0.0137 5.2201
12 0 23 3.1536 2.9352
12 0 24 0.2889 0.1751
12 1 0 -0.6138 -0.4988
12 1 1 -5.2260 11.6349
12 1 2 -2.5592 3.5873
12 1 3 -2.1085 -3.3911
12 1 4 -3.3259 4.0259
12 1 5 0.8206 -0.4504
12 1 6 -0.3957 7.1370
12 1 7 3.5150 -0.9010
12 1 8 4.6986 -0.5758
12 1 9 1.6571 0.6543
12 1 10 4.2905 -3.7422
12 1 11 2.1338 -0.8790
12 1 12 -1.5314 -1.6501
12 1 13 3.1970 -2.1641
12 1 14 -2.5609 -0.7428
12 1 15 -0.0088 1.1490
12 1 16 -4.4757 -1.7780
12 1 17 5.8489 -3.0187
12 1 18 0.5106 -0.3149
12 1 19 -2.8111 -3.4956
12 1 20 -2.2537 6.4103
12 1 21 8.3790 -2.2874
12 1 22 1.5969 2.8041
12 1 23 6.1903 -3.0694
12 1 24 4.2411 -0.1560
12 2 0 9.8177 -0.1477
12 2 1 0.1234 0.0209
12 2 2 -0.0012 7.7796
12 2 3 -0.1393 0.3322
12 2 4 0.0676 2.0549
12 2 5 2.0517 1.5763
12 2 6 -0.0558 -2.1342
12 2 7 1.1881 0.3739
12 2 8 0.4528 -4.5690
12 2 9 -5.7207 -0.6115
12 2 10 0.9866 0.6473
12 2 11 1.5638 1.5028
12 2 12 2.1340 -3.2649
12 2 13 -6.8918 6.2259
12 2 14 2.3641 2.3128
12 2 15 3.3758 4.4833
12 2 16 -1.1955 -2.4444
12 2 17 -3.7921 -2.7962
12 2 18 1.9160 -8.3527
12 2 19 8.4585 1.7141
12 2 20 -7.2024 -3.8843
12 2 21 1.5462 -2.5559
12 2 22 1.0750 -11.1426
12 2 23 1.6469 -2.5694
12 2 24 3.2501 -9.7078
12 3 0 0.7760 0.3670
12 3 1 3.7098 -7.6728
12 3 2 -0.1278 0.5119
12 3 3 0.1817 -2.1205
12 3 4 -5.0203 -5.2073
12 3 5 -1.0349 1.1903
12 3 6 -6.9747 -0.9086
12 3 7 -2.3993 4.0591
12 3 8 -1.3811 4.6569
12 3 9 -1.1190 -2.3604
12 3 10 0.1285 1.7851
12 3 11 -1.8921 0.6805
12 3 12 4.9258 -1.2832
12 3 13 -1.7438 -3.0855
12 3 14 -4.6533 0.9059
12 3 15 3.7001 2.9208
12 3 16 -1.2588 9.0561
12 3 17 -8.8751 -0.1614
12 3 18 -1.7759 -3.7196
12 3 19 0.4314 2.2426
12 3 20 2.3941 0.7451
12 3 21 -10.1163 3.7827
12 3 22 -0.2721 2.5351
12 3 23 -7.3962 1.8783
12 3 24 4.2780 -2.8127
12 4 0 -3.6339 -1.2864
12 4 1 2.6421 1.0504
12 4 2 -2.2906 -0.2213
12 4 3 0.5570 4.0347
12 4 4 -2.8779 -2.3890
12 4 5 -1.4538 1.3492
12 4 6 3.4303 0.1743
12 4 7 -0.0664 1.5670
12 4 8 4.8470 -0.6667
12 4 9 -2.4849 -2.3093
12 4 10 -0.2144 -2.0026
12 4 11 0.6761 4.0510
12 4 12 -1.7213 0.1415
12 4 13 3.3734 -0.7604
12 4 14 -2.8769 -0.3489
12 4 15 2.3164 -2.2004
12 4 16 0.5213 1.8421
12 4 17 -0.0355 5.6001
12 4 18 -5.5788 1.1575
12 4 19 -6.7820 2.8701
12 4 20 0.2767 4.9002
12 4 21 7.3303 3.5457
12 4 22 2.8103 7.2195
12 4 23 3.2731 -2.2595
12 5 0 -2.0140 -0.2877
12 5 1 1.1016 2.2555
12 5 2 4.2576 1.0842
12 5 3 4.6013 0.9737
12 5 4 1.1571 3.6114
12 5 5 -6.4824 1.9856
12 5 6 -0.2326 -1.6418
12 5 7 -0.6688 -1.4843
12 5 8 1.9235 0.4020
12 5 9 -0.0099 -0.0294
12 5 10 -4.8393 -1.6664
12 5 11 5.2360 -2.5942
12 5 12 2.9771 3.7627
12 5 13 -0.6058 -3.5568
12 5 14 2.8024 3.9668
12 5 15 0.7554 -3.0248
12 5 16 7.2648 -7.4544
12 5 17 -4.7820 -1.6144
12 5 18 5.9862 -1.6161
12 5 19 2.9676 -0.7181
12 5 20 -5.9697 -2.5158
12 5 21 -3.4364 -3.2485
12 5 22 -4.8729 1.1178
12 5 23 -0.3038 2.8836
12 6 0 -3.1025 0.6776
12 6 1 -2.4036 -0.6904
12 6 2 5.9228 0.3452
12 6 3 9.4395 -4.6172
12 6 4 7.0014 -5.4202
12 6 5 -0.5514 5.3257
12 6 6 -0.8183 2.2393
12 6 7 -1.8558 -4.2220
12 6 8 -1.0868 5.1476
12 6 9 -0.5253 -0.9489
12 6 10 3.1803 3.1212
12 6 11 0.4731 -2.0745
12 6 12 -0.2726 -2.8076
12 6 13 3.6124 -4.0312
12 6 14 -0.7092 1.1606
12 6 15 -0.4675 -1.5003
12 6 16 -2.3362 9.0453
12 6 17 -3.3268 -6.7181
12 6 18 -0.5412 -3.0739
12 6 19 2.3651 -0.2779
12 6 20 -2.9591 -2.7656
12 6 21 -2.6620 0.6858
12 6 22 -0.8255 0.9076
12 7 0 -6.4434 -0.3570
12 7 1 -2.8970 2.7216
12 7 2 -2.1864 2.5206
12 7 3 -0.8280 -0.3709
12 7 4 1.3915 -8.9039
12 7 5 -0.4040 -2.1227
12 7 6 5.3842 7.2514
12 7 7 1.5188 0.2319
12 7 8 -3.1557 0.0435
12 7 9 1.4059 -2.1301
12 7 10 -0.9164 0.1798
12 7 11 -0.5488 4.9378
12 7 12 -0.0585 -4.3766
12 7 13 -2.5891 -0.3848
12 7 14 -2.7844 -4.0079
12 7 15 7.5185 2.1431
12 7 16 -3.2592 3.1772
12 7 17 5.6461 9.0812
12 7 18 3.1787 -6.1315
12 7 19 0.8417 6.0199
12 7 20 -3.7849 -0.8013
12 7 21 5.0397 -3.2826
12 7 22 4.7687 -0.3270
12 8 0 -2.0220 0.8531
12 8 1 0.0892 1.1115
12 8 2 -0.6868 4.5713
12 8 3 -0.6167 5.7655
12 8 4 1.1078 -0.1214
12 8 5 1.6685 -4.6176
12 8 6 -2.0046 0.5622
12 8 7 3.4436 -6.3779
12 8 8 -1.8793 -1.6556
12 8 9 -1.7831 5.3989
12 8 10 -6.0317 0.4406
12 8 11 -1.9533 2.6758
12 8 12 3.7821 5.0931
12 8 13 4.7047 3.1582
12 8 14 -5.4125 -3.9087
12 8 15 2.2502 -3.1533
12 8 16 0.3569 -6.2848
12 8 17 -5.9943 1.9688
12 8 18 6.3173 -1.2813
12 8 19 -1.9131 -2.0822
12 8 20 3.1578 4.6131
12 8 21 -5.3369 1.2421
12 9 0 -1.6277 0.6087
12 9 1 -2.7387 -4.3312
12 9 2 2.1525 -3.1978
12 9 3 -3.4561 1.0094
12 9 4 7.0415 0.4583
12 9 5 -0.0219 3.0725
12 9 6 -0.8759 -3.7280
12 9 7 0.3266 -0.5692
12 9 8 -0.7148 -5.6621
12 9 9 2.4991 2.3698
12 9 10 3.6533 -0.3466
12 9 11 0.1925 0.9227
12 9 12 -3.4860 -4.6451
12 9 13 -2.1585 3.4371
12 9 14 -1.0945 -0.3583
12 9 15 -3.7293 5.2043
12 9 16 -0.6745 -0.6566
12 9 17 -3.1999 0.2951
12 9 18 -0.6737 4.2806
12 9 19 0.5196 -11.2146
12 9 20 0.6522 4.1794
12 9 21 -1.6761 -2.0552
12 10 0 1.0489 -0.9488
12 10 1 -0.1743 4.3739
12 10 2 4.4834 -2.6344
12 10 3 -2.5084 -4.3388
12 10 4 -0.0730 -0.0863
12 10 5 2.3165 -5.2031
12 10 6 2.4744 0.1297
12 10 7 -1.0841 -2.4242
12 10 8 -4.8904 -2.2761
12 10 9 -2.0341 -3.1272
12 10 10 2.7339 -4.7543
12 10 11 -0.5037 0.1248
12 10 12 3.0442 0.9130
12 10 13 -1.7418 -0.2738
12 10 14 2.5386 2.7320
12 10 15 2.1521 6.2944
12 10 16 5.0346 1.9880
12 10 17 2.1893 -4.1108
12 10 18 -3.9165 2.0924
12 10 19 0.4625 -0.9358
12 10 20 -7.4350 -4.5372
12 11 0 -4.0454 0.6749
12 11 1 -2.5685 -2.8824
12 11 2 -1.8033 4.8826
12 11 3 -6.7651 -3.1105
12 11 4 -3.6786 7.2541
12 11 5 1.6693 3.7738
12 11 6 -1.2516 2.0321
12 11 7 3.6339 1.1857
12 11 8 0.6402 -2.7050
12 11 9 -3.7052 1.1042
12 11 10 -3.9224 3.8422
12 11 11 -4.8473 -5.8293
12 11 12 -0.2987 6.1043
12 11 13 -0.5196 -0.5090
12 11 14 4.3485 -0.7832
12 11 15 1.4020 -2.6321
12 11 16 5.8563 4.3110
12 11 17 2.7609 0.1554
12 11 18 0.4279 -0.9074
12 11 19 -0.8768 5.5588
12 12 1 -0.3624 -1.8294
12 12 2 1.9358 0.3923
12 12 3 0.8583 -5.4900
12 12 4 -6.3510 0.1541
12 12 5 0.9615 4.5295
12 12 6 0.2866 0.4771
12 12 7 -0.9640 3.0330
12 12 8 2.3548 -0.3981
12 12 9 -0.7936 -6.0202
12 12 10 -3.1037 0.6552
12 12 11 0.7269 3.0439
12 12 12 0.2002 0.1826
12 12 13 0.8005 4.3948
12 12 14 -5.6389 0.4248
12 12 15 -0.6827 -7.9459
12 12 16 0.5837 -0.3455
12 12 17 -0.5494 3.3078
12 12 18 4.6881 0.5496
13 0 1 -1.3478 -1.7895
13 0 2 -0.1081 0.2405
13 0 3 -0.7514 0.4654
13 0 4 0.3268 5.9303
13 0 5 -1.5740 -1.3617
13 0 6 -4.9483 0.0556
13 0 7 -3.0606 2.8329
13 0 8 -0.5738 -3.4295
13 0 9 -0.1381 0.0779
13 0 10 0.8605 -0.1290
13 0 11 0.8924 -0.7082
13 0 12 0.2241 -0.9637
13 0 13 -0.2518 -0.1759
13 0 14 -6.5213 0.3045
13 0 15 1.8072 -1.9712
13 0 16 -0.2693 2.3083
13 0 17 4.8770 4.6174
13 0 18 -2.0671 -0.3034
13 0 19 -2.2934 2.3716
13 0 20 0.1797 1.4923
13 0 21 -1.0398 -0.6935
13 0 22 -2.0107 0.4043
13 0 23 -1.5477 1.2932
13 1 0 3.0137 0.5524
13 1 1 -0.2061 0.1396
13 1 2 -0.1522 -2.8504
13 1 3 8.0852 -1.3529
13 1 4 1.4330 2.7681
13 1 5 7.2037 3.1807
13 1 6 4.1840 1.8245
13 1 7 -1.6345 -2.9638
13 1 8 2.1669 -1.3987
13 1 9 -0.1551 -7.7229
13 1 10 -1.4729 0.3156
13 1 11 0.1039 -4.5382
13 1 12 -0.4832 -0.2618
13 1 13 -0.7926 2.9209
13 1 14 -0.5748 2.8307
13 1 15 1.7146 2.5437
13 1 16 -2.6849 -5.5694
13 1 17 -0.1436 1.1808
13 1 18 -0.1299 2.1431
13 1 19 0.2876 2.1222
13 1 20 6.0662 1.0396
13 1 21 9.6410 -1.5029
13 1 22 1.7751 -5.3390
13 1 23 2.2408 1.6805
13 2 0 -6.6494 0.3182
13 2 1 -3.1119 0.7805
13 2 2 -3.4607 -2.6902
13 2 3 0.9754 1.3642
13 2 4 0.1660 -6.0550
13 2 5 0.5690 -5.0688
13 2 6 6.4333 1.3960
13 2 7 -2.7634 -0.7577
13 2 8 -4.9774 4.2340
13 2 9 2.1870 1.9673
13 2 10 -3.2916 0.9132
13 2 11 0.6901 -4.3012
13 2 12 -2.2371 0.9660
13 2 13 1.5640 -0.0414
13 2 14 6.9352 0.1695
13 2 15 3.9186 0.8971
13 2 16 0.4310 -6.1597
13 2 17 -4.8327 -2.6733
13 2 18 1.8990 -0.5316
13 2 19 -8.0954 4.1869
13 2 20 -9.7380 -8.3158
13 2 21 -2.5748 -4.1218
13 2 22 1.6202 -3.8833
13 2 23 -4.6804 -6.7730
13 3 0 0.4271 -0.5456
13 3 1 -5.5577 5.7455
13 3 2 2.7018 0.0376
13 3 3 -6.9897 1.9384
13 3 4 -1.5403 2.3730
13 3 5 -6.5279 1.0448
13 3 6 -3.2522 0.6077
13 3 7 9.1362 2.6973
13 3 8 -2.4345 -2.6628
13 3 9 6.7384 0.3738
13 3 10 1.4979 6.4463
13 3 11 2.4165 0.4395
13 3 12 -2.7492 -5.7144
13 3 13 0.8010 3.7301
13 3 14 1.6750 -1.6255
13 3 15 -2.2259 5.7725
13 3 16 4.1805 0.3792
13 3 17 2.4633 -2.1527
13 3 18 7.6871 0.4655
13 3 19 0.3013 4.6960
13 3 20 -2.9469 3.8920
13 3 21 -6.2247 1.1404
13 3 22 -0.0892 6.8550
13 3 23 2.8458 -5.8998
13 4 0 7.2843 -0.2153
13 4 1 -1.4911 0.8282
13 4 2 1.5350 5.6487
13 4 3 2.7066 -0.8302
13 4 4 -1.7366 7.4451
13 4 5 4.1093 2.6564
13 4 6 1.7400 -0.2059
13 4 7 -4.0031 2.5064
13 4 8 -1.4824 -3.5905
13 4 9 -4.5304 -5.0092
13 4 10 1.1353 -1.7474
13 4 11 0.6174 6.7523
13 4 12 1.1776 -15.1290
13 4 13 -4.4288 0.2951
13 4 14 5.7805 -1.6140
13 4 15 -5.3614 -2.8229
13 4 16 -2.6568 5.6183
13 4 17 0.4129 0.4726
13 4 18 2.5309 3.3799
13 4 19 0.0949 -0.4893
13 4 20 9.7752 4.2433
13 4 21 3.5759 0.0892
13 4 22 -3.1862 -2.0092
13 4 23 1.8441 1.4194
13 5 0 -0.7355 -0.4641
13 5 1 2.9688 -3.6769
13 5 2 4.4226 -5.9215
13 5 3 5.3818 -1.2172
13 5 4 -5.8122 -1.0027
13 5 5 -1.5289 2.2814
13 5 6 7.2025 0.0197
13 5 7 2.3606 -1.9079
13 5 8 -1.6644 7.2529
13 5 9 -0.7625 4.7452
13 5 10 -1.0723 -5.3472
13 5 11 -4.3673 9.5576
13 5 12 -2.7445 2.2923
13 5 13 -6.5091 -6.8653
13 5 14 0.2461 5.4644
13 5 15 6.9308 -10.3611
13 5 16 -10.7641 1.7837
13 5 17 0.8667 -2.6990
13 5 18 1.9216 6.0899
13 5 19 -2.6200 -2.8596
13 5 20 -4.5075 1.3883
13 5 21 5.4080 2.8920
13 5 22 3.5500 1.7705
13 6 0 -2.8256 0.0995
13 6 1 -1.6508 1.1516
13 6 2 3.1753 -3.7588
13 6 3 0.6554 -10.2616
13 6 4 1.1421 -2.6251
13 6 5 -5.0797 0.3193
13 6 6 -3.3180 -0.2215
13 6 7 5.7050 -2.2704
13 6 8 -3.8895 -5.7300
13 6 9 5.4184 0.1245
13 6 10 7.0282 0.7320
13 6 11 -2.2964 -3.9111
13 6 12 3.2616 9.8925
13 6 13 1.6641 0.1967
13 6 14 -4.5626 -0.1677
13 6 15 8.0607 4.8979
13 6 16 -4.4475 -8.0852
13 6 17 1.9849 -1.2140
13 6 18 -0.7970 0.1176
13 6 19 -3.9863 3.6666
13 6 20 -4.3008 -1.5754
13 6 21 -3.2337 1.8014
13 6 22 2.5132 2.2768
13 7 0 4.0422 0.4937
13 7 1 3.6189 0.2115
13 7 2 -0.9503 3.3272
13 7 3 -3.2464 -4.0606
13 7 4 -3.0320 -3.5102
13 7 5 4.8706 0.6639
13 7 6 0.1358 0.4912
13 7 7 -4.1337 3.6116
13 7 8 -0.7919 -3.7623
13 7 9 -6.4362 -1.4349
13 7 10 0.1495 2.6079
13 7 11 3.0905 -10.1606
13 7 12 1.7193 -2.2340
13 7 13 -1.0749 0.3215
13 7 14 0.2582 -4.3939
13 7 15 -4.3512 6.2679
13 7 16 9.1313 -4.7292
13 7 17 -0.4801 -3.9333
13 7 18 5.2131 -2.8123
13 7 19 -2.5196 1.6897
13 7 20 0.9382 1.6267
13 7 21 1.7997 -1.5675
13 8 0 -2.6677 0.6535
13 8 1 2.7973 0.7765
13 8 2 3.7293 -0.6522
13 8 3 2.2395 1.3733
13 8 4 -2.3023 -3.4674
13 8 5 -4.0759 0.8946
13 8 6 1.5911 -3.9285
13 8 7 0.5776 0.1322
13 8 8 2.8318 10.8533
13 8 9 -2.1629 3.6637
13 8 10 -1.0578 4.2654
13 8 11 2.5820 3.1935
13 8 12 1.0145 -8.7211
13 8 13 -3.6469 2.9434
13 8 14 -0.9495 -4.3383
13 8 15 -6.8301 -2.0016
13 8 16 -1.8590 5.6188
13 8 17 -0.1684 -4.8159
13 8 18 -0.1353 -2.7851
13 8 19 4.7335 -0.6820
13 8 20 -0.7373 3.3900
13 8 21 4.9884 -1.1546
13 9 0 -7.0079 0.1679
13 9 1 -0.3146 -1.7498
13 9 2 -2.7785 4.8081
13 9 3 2.1992 -3.1521
13 9 4 1.0900 1.4119
13 9 5 -5.1444 -6.7648
13 9 6 -1.5201 -1.0798
13 9 7 -2.8117 -3.7131
13 9 8 -2.2167 0.9042
13 9 9 4.2302 -1.7591
13 9 10 1.1996 -1.4172
13 9 11 -6.4761 6.0147
13 9 12 2.0261 3.1473
13 9 13 -5.1358 0.4329
13 9 14 6.0950 10.7111
13 9 15 -1.0697 -3.6944
13 9 16 -4.0700 3.4975
13 9 17 -0.4219 4.2491
13 9 18 -4.4637 -2.9916
13 9 19 0.2364 -3.0186
13 9 20 1.7734 0.9161
13 10 0 1.5072 -0.2381
13 10 1 5.3135 0.2613
13 10 2 1.1168 -4.4048
13 10 3 -1.1653 5.2006
13 10 4 -4.4823 -0.5387
13 10 5 -0.1670 -1.6455
13 10 6 -1.8374 -2.3094
13 10 7 -3.9102 3.9709
13 10 8 -3.4066 0.9988
13 10 9 -0.2919 7.8303
13 10 10 0.7253 -4.0058
13 10 11 -0.7829 -0.1752
13 10 12 -0.5969 8.6453
13 10 13 6.3705 -5.0367
13 10 14 0.3270 4.1965
13 10 15 10.6465 -0.6884
13 10 16 -1.3392 -6.8125
13 10 17 3.2468 1.8503
13 10 18 -4.3184 4.1003
13 10 19 -4.3362 -0.5242
13 11 0 -10.6642 -0.4764
13 11 1 -0.6015 4.5483
13 11 2 0.3064 -1.5922
13 11 3 5.8261 2.9654
13 11 4 3.6528 9.6766
13 11 5 1.0988 1.2864
13 11 6 4.6127 -2.6799
13 11 7 3.7212 -8.9586
13 11 8 1.3106 -6.3836
13 11 9 0.3789 3.5758
13 11 10 0.2805 3.4656
13 11 11 6.9856 -4.8353
13 11 12 -4.2813 5.5798
13 11 13 2.9871 -0.4881
13 11 14 0.3576 -6.0014
13 11 15 2.6592 0.2039
13 11 16 -1.6104 -4.6265
13 11 17 -0.1535 -3.7244
13 11 18 4.3146 -1.5736
13 12 1 -11.2738 -3.1123
13 12 2 -5.1544 0.0773
13 12 3 -4.5737 -0.2918
13 12 4 1.5574 2.1628
13 12 5 2.3225 4.4064
13 12 6 0.5217 5.3544
13 12 7 -2.3307 4.6690
13 12 8 -4.1147 -8.2404
13 12 9 -6.4818 1.4933
13 12 10 -0.1563 1.6986
13 12 11 5.9041 -2.4390
13 12 12 2.8110 -0.0898
13 12 13 -7.0817 2.9756
13 12 14 -0.9289 -2.1801
13 12 15 2.3853 1.5133
13 12 16 -0.7638 1.8604
13 12 17 -4.9456 0.3153
13 13 1 -0.3380 7.1025
13 13 2 -1.2213 0.6626
13 13 3 0.0561 6.6814
13 13 4 -0.2401 0.0135
13 13 5 0.1042 -12.7069
13 13 6 6.2053 0.7319
13 13 7 0.2996 8.6360
13 13 8 17.2282 -0.3574
13 13 9 -0.1041 -5.9076
13 13 10 -5.9747 0.2568
13 13 11 -0.2576 -6.5379
13 13 12 1.1293 -0.0502
13 13 13 0.3125 3.5659
13 13 14 -5.5567 0.7727
13 13 15 0.4420 2.3522
13 13 16 6.2091 -0.0947
14 0 0 -10.1267 -1.2960
14 0 1 3.9083 -2.9984
14 0 2 0.9126 -2.7388
14 0 3 1.0423 0.8969
14 0 4 -1.9294 1.0206
14 0 5 -0.5960 0.5870
14 0 6 -0.7862 -6.1971
14 0 7 -0.1796 0.0872
14 0 8 1.6938 -0.6652
14 0 9 -0.2747 0.1199
14 0 10 0.5559 -3.3524
14 0 11 -0.5000 -0.3599
14 0 12 -0.0832 0.7408
14 0 13 -1.6758 1.8308
14 0 14 -0.5421 -0.0793
14 0 15 0.3889 0.2847
14 0 16 5.7297 -0.5322
14 0 17 -2.1684 2.1874
14 0 18 0.4289 1.0932
14 0 19 -3.0909 -2.9466
14 0 20 -0.5866 0.4446
14 0 21 -0.4880 0.6643
14 0 22 -0.4191 3.6012
14 1 0 -7.7234 -0.7902
14 1 1 -6.2436 2.7176
14 1 2 4.3484 -5.0690
14 1 3 4.4308 0.8641
14 1 4 -3.7013 -3.5541
14 1 5 3.8341 2.3578
14 1 6 -4.5435 -1.6325
14 1 7 -5.3380 -5.4994
14 1 8 -4.0694 0.8731
14 1 9 -4.4702 6.3905
14 1 10 -5.2746 -1.2194
14 1 11 -2.8795 1.4224
14 1 12 -3.4418 0.2025
14 1 13 -1.0654 -1.8371
14 1 14 6.2072 -1.4799
14 1 15 -0.5843 -5.3625
14 1 16 -0.9198 0.1429
14 1 17 4.3466 5.4247
14 1 18 -1.6983 7.2819
14 1 19 4.4183 -1.1251
14 1 20 2.9918 -6.8829
14 1 21 -3.5368 -5.8193
14 1 22 -3.8754 -1.7981
14 2 0 -1.4654 0.3291
14 2 1 -3.4488 3.7441
14 2 2 3.8545 4.1081
14 2 3 -1.5746 1.0549
14 2 4 3.1835 -6.0527
14 2 5 -0.3810 3.1250
14 2 6 1.2478 3.8099
14 2 7 1.9205 -1.5691
14 2 8 6.6283 2.5809
14 2 9 1.8614 5.1962
14 2 10 5.6610 4.0732
14 2 11 0.0930 1.8030
14 2 12 -0.9173 4.9380
14 2 13 -1.9074 0.7469
14 2 14 -5.9458 0.0645
14 2 15 -2.3317 -8.8267
14 2 16 -3.2973 -5.0137
14 2 17 2.7154 0.1731
14 2 18 3.0503 8.9963
14 2 19 -9.6398 4.9474
14 2 20 4.1092 3.7048
14 2 21 2.6164 3.7228
14 2 22 -7.5897 3.5531
14 3 0 2.1233 -0.4200
14 3 1 1.2663 -4.5393
14 3 2 0.0318 1.7927
14 3 3 -2.3232 -2.2586
14 3 4 4.9795 3.5564
14 3 5 1.9506 -0.2635
14 3 6 1.7027 -1.2010
14 3 7 0.5512 -1.5335
14 3 8 -0.2102 -12.1109
14 3 9 4.9771 -2.2169
14 3 10 -1.1404 1.0099
14 3 11 1.5291 -6.1657
14 3 12 6.2421 -4.5478
14 3 13 4.2567 5.3303
14 3 14 -2.9171 5.0825
14 3 15 -0.1420 1.1226
14 3 16 1.0994 -4.9249
14 3 17 1.5781 -10.5187
14 3 18 2.7282 -2.8091
14 3 19 0.0287 -1.7788
14 3 20 -3.2363 3.7178
14 3 21 10.2056 2.7083
14 3 22 3.3434 -2.5010
14 4 0 0.0725 2.0000
14 4 1 4.2049 1.4664
14 4 2 -0.7000 -3.7234
14 4 3 -1.0967 1.4897
14 4 4 -0.1696 -1.9594
14 4 5 8.6248 -5.7446
14 4 6 5.2278 0.1054
14 4 7 -8.2688 0.7381
14 4 8 1.4255 -1.1191
14 4 9 -2.8534 -2.0281
14 4 10 1.7808 3.5307
14 4 11 -10.3663 -2.3409
14 4 12 -1.0095 -1.9824
14 4 13 -3.0394 -1.2904
14 4 14 0.6727 -0.6625
14 4 15 -1.6879 4.5859
14 4 16 2.7943 2.5730
14 4 17 0.8816 0.5229
14 4 18 -3.0732 -4.5940
14 4 19 7.3192 -5.1865
14 4 20 1.3097 -3.0537
14 4 21 -2.1793 -2.1581
14 4 22 4.4885 -2.6984
14 5 0 -5.0273 0.9864
14 5 1 1.1604 -1.8898
14 5 2 2.6878 -4.9544
14 5 3 -12.4001 -1.8025
14 5 4 -7.3363 5.3994
14 5 5 -1.5561 -2.6530
14 5 6 5.3476 -1.5591
14 5 7 0.2243 -1.1285
14 5 8 -0.5960 1.0884
14 5 9 0.6511 -2.8464
14 5 10 4.7269 1.8937
14 5 11 0.2371 2.3736
14 5 12 -2.4182 4.5065
14 5 13 1.2350 3.1889
14 5 14 -1.5304 -3.3647
14 5 15 -7.0480 -2.3172
14 5 16 -2.8192 -0.2246
14 5 17 5.3231 3.9637
14 5 18 -7.5128 0.6286
14 5 19 -1.5788 -1.1115
14 5 20 -0.4812 -3.3967
14 5 21 2.4278 -2.9977
14 6 0 1.4728 -0.7309
14 6 1 -0.5786 4.3864
14 6 2 -1.1356 2.3333
14 6 3 -3.1637 -7.3568
14 6 4 -10.4763 3.9394
14 6 5 -1.0227 3.7855
14 6 6 -4.7586 -0.5835
14 6 7 0.4598 3.7965
14 6 8 -2.4740 -1.5140
14 6 9 0.1528 -1.8279
14 6 10 -4.9845 6.4917
14 6 11 8.5862 -2.4966
14 6 12 2.4700 1.9887
14 6 13 3.2550 -2.2550
14 6 14 -1.1201 5.8929
14 6 15 -6.7950 -2.0709
14 6 16 -6.7416 -0.9048
14 6 17 0.1630 4.5870
14 6 18 0.3792 3.4470
14 6 19 -0.9768 8.3675
14 6 20 0.3795 2.8928
14 6 21 0.5996 2.0018
14 7 0 4.0881 0.1056
14 7 1 4.0906 -2.9427
14 7 2 -2.6743 6.8823
14 7 3 0.5241 4.2754
14 7 4 -3.4555 -0.9524
14 7 5 -0.3335 5.4880
14 7 6 0.1154 -5.2341
14 7 7 -2.6856 0.8277
14 7 8 2.6592 4.6757
14 7 9 5.4259 -1.8881
14 7 10 -5.6485 -5.7244
14 7 11 5.8375 -0.9989
14 7 12 -4.1772 0.1436
14 7 13 2.1205 -0.7248
14 7 14 0.3516 4.5441
14 7 15 4.5098 7.9432
14 7 16 -0.3698 0.6321
14 7 17 -7.6204 -2.4255
14 7 18 0.5357 -2.3561
14 7 19 1.3717 -0.1647
14 7 20 3.2937 -1.0292
14 8 0 0.5269 -1.3622
14 8 1 0.1882 -3.0129
14 8 2 3.0680 -5.6808
14 8 3 0.8579 3.2797
14 8 4 -1.7227 0.2608
14 8 5 -5.0729 5.3283
14 8 6 3.1936 2.6830
14 8 7 -2.0350 -3.5332
14 8 8 -2.3130 1.7811
14 8 9 4.4288 -1.2827
14 8 10 2.1270 -6.5855
14 8 11 -5.6624 -5.2707
14 8 12 1.1115 -0.2870
14 8 13 -2.2349 4.9289
14 8 14 10.4006 -6.5466
14 8 15 5.0421 2.7828
14 8 16 6.7565 6.4600
14 8 17 0.0911 -2.1189
14 8 18 -4.4602 1.4602
14 8 19 -2.3540 0.3223
14 8 20 0.5614 -1.3646
14 9 0 2.4827 -0.6608
14 9 1 5.2247 3.8381
14 9 2 -3.2907 4.2273
14 9 3 -1.6508 2.4410
14 9 4 1.0322 -1.3165
14 9 5 -0.8099 0.5843
14 9 6 0.5486 13.1554
14 9 7 -2.2627 4.8842
14 9 8 -2.9276 2.3273
14 9 9 0.4194 1.2959
14 9 10 -0.6471 4.6660
14 9 11 -2.4902 -0.1045
14 9 12 -0.7267 -1.7285
14 9 13 3.1753 -3.2176
14 9 14 -0.4046 -2.2515
14 9 15 2.9558 -13.4547
14 9 16 -0.9334 0.5874
14 9 17 6.7342 5.4619
14 9 18 -0.2875 -1.3705
14 9 19 2.0212 4.1009
14 10 0 3.1721 1.0633
14 10 1 7.7645 -8.4500
14 10 2 9.0044 -3.8050
14 10 3 -3.8000 3.7928
14 10 4 -0.8326 1.1977
14 10 5 5.5410 -6.4378
14 10 6 2.5676 5.4266
14 10 7 4.8357 -0.5822
14 10 8 4.2069 7.7753
14 10 9 1.9071 2.6737
14 10 10 5.8477 -3.0214
14 10 11 0.8868 7.6774
14 10 12 -3.3323 -2.7764
14 10 13 1.3802 1.7737
14 10 14 -5.3884 -6.9696
14 10 15 -5.4422 -0.6128
14 10 16 -1.0539 -11.6213
14 10 17 -3.2328 4.6394
14 10 18 4.4750 -3.1129
14 11 0 -7.9490 0.4693
14 11 1 -2.7069 0.8271
14 11 3 11.1876 0.0689
14 11 4 -3.6977 -5.3073
14 11 5 6.2247 -4.7709
14 11 6 -2.2561 -7.9613
14 11 7 0.4186 -7.7352
14 11 8 -7.1822 -8.6532
14 11 9 -3.5344 8.8965
14 11 10 6.0760 -7.0092
14 11 11 5.5309 3.2777
14 11 12 -3.6360 -1.4743
14 11 13 -0.9283 3.6936
14 11 14 5.0564 2.9383
14 11 15 -11.0772 -0.5014
14 11 16 -2.8524 4.3237
14 11 17 -5.1360 -6.2187
14 12 0 -11.0370 0.8715
14 12 3 1.9343 1.5720
14 12 4 4.7875 -4.5993
14 12 5 1.1585 -5.2719
14 12 6 0.1242 1.2492
14 12 7 -2.7407 1.5759
14 12 8 2.3164 -2.3412
14 12 9 -11.1420 -2.2647
14 12 10 5.6908 2.0787
14 12 11 2.7584 -1.9738
14 12 12 -0.2115 1.6418
14 12 13 -0.9203 -5.2311
14 12 14 8.1515 8.7272
14 12 15 5.4649 -3.2274
14 12 16 -4.9077 6.2266
14 13 0 9.0965 0.6678
14 13 3 -5.0307 6.7869
14 13 4 -5.9329 -6.5349
14 13 5 -1.3526 -0.9152
14 13 6 -6.5877 1.6030
14 13 7 5.1187 -2.0344
14 13 8 2.1720 1.4980
14 13 9 -9.5613 -11.3470
14 13 10 -13.6726 0.0282
14 13 11 -0.0987 3.6082
14 13 12 -0.6265 4.2250
14 13 13 0.0344 -1.5438
14 13 14 -0.6417 -2.6954
14 14 3 0.1669 -2.7187
14 14 4 6.6007 0.8329
14 14 5 -0.0821 6.6167
14 14 6 5.4715 0.4052
14 14 7 -0.1114 0.5608
14 14 8 5.0457 -0.9613
14 14 9 0.5250 10.2833
14 14 10 -5.7295 0.2246
14 14 11 0.1981 4.2381
14 14 12 1.7495 0.6401
15 0 1 2.2955 2.3511
15 0 2 8.7270 0.0059
15 0 3 -2.0835 1.9185
15 0 4 -0.1440 7.9297
15 0 5 -3.4598 -3.4901
15 0 6 1.0886 0.0839
15 0 7 0.7733 -0.5741
15 0 8 -0.3240 0.5678
15 0 9 -2.9051 -2.2856
15 0 10 -1.6518 0.1239
15 0 11 -0.3967 0.2258
15 0 12 0.2044 -6.7990
15 0 13 3.6253 3.1549
15 0 14 2.2293 0.0257
15 0 15 6.3895 -6.1077
15 0 16 -0.0922 3.1556
15 0 17 -2.3526 -1.8026
15 0 18 -4.8082 0.0234
15 0 19 5.5889 -6.0225
15 0 20 0.0916 -2.3470
15 0 21 5.6722 5.7490
15 1 0 -1.5853 1.2678
15 1 1 1.4798 -2.4733
15 1 2 5.3473 -1.8424
15 1 3 1.5957 -4.9967
15 1 4 0.0087 -2.7279
15 1 5 -1.2383 5.5031
15 1 6 -7.1655 0.6812
15 1 7 0.2120 1.8201
15 1 8 0.3294 4.1696
15 1 9 1.3714 3.4634
15 1 10 2.8348 -1.1117
15 1 11 -4.1338 1.5634
15 1 12 1.4326 -2.2785
15 1 13 -2.0222 -5.0804
15 1 14 -3.9975 -1.9619
15 1 15 -3.4628 -1.6536
15 1 16 4.1732 -0.6389
15 1 17 3.2309 5.8486
15 1 18 -3.3498 -5.5844
15 1 19 0.8204 -2.2151
15 1 20 -2.3115 -8.8810
15 1 21 -8.8857 0.9893
15 2 0 -0.6011 0.9350
15 2 1 3.4888 2.3347
15 2 2 -1.8191 0.6520
15 2 3 0.9035 -6.3683
15 2 4 5.5845 1.1233
15 2 5 0.0715 -0.2787
15 2 6 -1.0681 0.9974
15 2 7 0.9735 3.9741
15 2 8 -2.1120 -1.9124
15 2 9 0.6955 -3.3698
15 2 10 -1.5631 -0.8613
15 2 11 -2.0926 -8.6832
15 2 12 -2.4744 3.3983
15 2 13 -2.6734 2.6247
15 2 14 -2.5340 1.6107
15 2 15 -2.3462 1.4389
15 2 16 -0.6682 1.3518
15 2 17 5.1222 4.3807
15 2 18 -3.8975 1.1832
15 2 19 1.2473 -1.9789
15 2 20 10.2776 3.6079
15 2 21 -1.2142 -0.6471
15 3 0 0.0793 -1.5506
15 3 1 -2.5137 -0.7288
15 3 2 -4.6590 0.0794
15 3 3 0.2447 -1.9173
15 3 4 2.3986 -3.5882
15 3 5 3.6632 -4.7872
15 3 6 2.4681 -5.1517
15 3 7 -4.4510 2.6971
15 3 8 1.3193 4.3443
15 3 9 -1.5357 9.1356
15 3 10 -4.6139 7.9873
15 3 11 -0.3278 -1.3766
15 3 12 -0.8898 3.2760
15 3 13 -2.4525 -1.1252
15 3 14 -0.2253 -0.8091
15 3 15 4.5103 -1.5653
15 3 16 -3.9398 -4.6080
15 3 17 -5.0345 2.9684
15 3 18 -3.2143 1.5148
15 3 19 -6.1508 1.0589
15 3 20 3.1665 -2.7043
15 4 0 6.4221 -0.2646
15 4 1 -3.6171 -2.2611
15 4 2 -1.8273 0.9662
15 4 3 -3.8742 2.8857
15 4 4 -4.0247 -3.1731
15 4 5 0.3822 -9.2430
15 4 6 -6.0791 0.8370
15 4 7 -0.2494 -14.0404
15 4 8 1.1251 0.8608
15 4 9 4.4297 -4.6697
15 4 10 3.9836 3.4382
15 4 11 9.1941 2.4047
15 4 12 -2.2913 7.1365
15 4 13 2.0222 2.7757
15 4 14 -3.6059 -2.1888
15 4 15 0.0606 0.3869
15 4 16 3.4225 -1.2824
15 4 17 -4.1810 0.3590
15 4 18 2.6519 4.1581
15 4 19 -2.1215 -0.8484
15 4 20 -6.7265 -1.0419
15 5 0 1.7828 -0.6022
15 5 1 -1.9978 -2.6093
15 5 2 -9.2293 4.7190
15 5 3 1.6040 9.2200
15 5 4 -1.4798 12.6035
15 5 5 7.9023 2.3789
15 5 6 -6.3130 4.2505
15 5 7 -2.7085 0.2206
15 5 8 -5.3218 -6.2687
15 5 9 -6.3184 -0.8330
15 5 10 -4.2052 -6.5183
15 5 11 4.9464 -1.8780
15 5 12 6.1824 -5.9377
15 5 13 1.2210 6.6715
15 5 14 1.0779 3.3003
15 5 15 -2.8920 4.7928
15 5 16 4.6575 0.1616
15 5 17 0.3431 2.1367
15 5 18 0.8716 4.0604
15 5 19 2.1470 5.2001
15 5 20 -2.2871 -1.6477
15 6 0 8.8492 -0.8298
15 6 1 2.3356 0.3455
15 6 2 -5.8720 -4.2687
15 6 3 -1.0687 2.5164
15 6 4 4.4567 0.0751
15 6 5 7.3622 11.0871
15 6 6 6.8596 -2.4744
15 6 7 -1.9295 13.4787
15 6 8 2.7114 -4.1089
15 6 9 2.2600 9.3351
15 6 10 -4.7287 0.6743
15 6 11 1.5336 -0.9292
15 6 12 -1.1217 -13.9880
15 6 13 -0.9103 -4.5538
15 6 14 -1.3523 0.7338
15 6 15 3.3317 3.7550
15 6 16 7.6227 2.6886
15 6 17 5.1493 -7.2583
15 6 18 8.7153 2.0951
15 6 19 5.6769 2.0587
15 6 20 3.9844 -2.4732
15 7 0 -0.9946 1.6542
15 7 1 3.3774 4.9201
15 7 2 -1.0922 3.4994
15 7 3 -2.2177 2.9471
15 7 4 0.3817 -1.6318
15 7 5 -1.7893 -3.5012
15 7 6 13.0429 -2.3059
15 7 7 -3.5142 2.1185
15 7 8 6.1333 2.1506
15 7 9 -0.4039 -4.0704
15 7 10 2.8406 -3.4927
15 7 11 -7.1405 12.5678
15 7 12 -2.9407 4.1708
15 7 13 -3.7880 -1.6876
15 7 14 2.2992 1.2775
15 7 15 -3.3464 -3.3588
15 7 16 -4.6271 1.2470
15 7 17 0.9870 -8.4777
15 7 18 -2.2512 -5.8045
15 7 19 3.2104 -0.6766
15 8 0 3.2810 0.4986
15 8 1 -1.6003 -9.0867
15 8 2 6.6541 4.5677
15 8 3 -0.4104 4.6567
15 8 4 2.2252 3.1977
15 8 5 0.4286 0.4025
15 8 6 1.8215 0.8383
15 8 7 3.1742 -9.6760
15 8 8 -2.2131 3.0150
15 8 9 2.8773 -6.6528
15 8 10 0.5455 -3.2217
15 8 11 0.6476 -2.9537
15 8 12 6.4106 11.5635
15 8 13 8.5103 -6.2828
15 8 14 2.5038 -1.3646
15 8 15 -2.6310 -2.2785
15 8 16 -10.7300 -1.7262
15 8 17 -3.7948 6.0633
15 8 18 -5.6390 -3.4511
15 8 19 -4.0721 -0.3757
15 9 0 -2.3963 -0.0125
15 9 1 6.8595 -3.4926
15 9 2 -9.3807 -7.1525
15 9 3 7.7841 -4.2243
15 9 4 4.6391 -2.6728
15 9 6 -2.3339 2.8718
15 9 7 3.7731 -2.6962
15 9 8 -5.2854 -2.1609
15 9 9 2.5338 -0.9873
15 9 10 -5.7492 -1.0472
15 9 11 -4.8383 -7.2285
15 9 12 -0.2918 -6.4757
15 9 13 2.8398 0.4194
15 9 14 -4.0134 -5.5240
15 9 15 0.8430 6.4529
15 9 16 2.0761 5.1675
15 9 17 -2.1366 5.7852
15 9 18 7.5174 4.0474
15 10 0 -9.1772 0.8362
15 10 1 -3.6892 2.6893
15 10 2 -5.3623 -6.2882
15 10 3 -14.2623 1.6810
15 10 6 -2.9516 -6.3032
15 10 7 2.8943 3.3913
15 10 8 -4.7264 2.7179
15 10 9 3.2818 2.0390
15 10 10 5.2959 0.6717
15 10 11 -11.9003 0.9875
15 10 12 -1.8237 -0.3078
15 10 13 -3.2372 -0.0894
15 10 14 1.9731 -3.4188
15 10 15 -2.4738 -1.3036
15 10 16 5.1685 3.5810
15 10 17 -0.0982 -4.9593
15 11 0 5.7092 -1.2136
15 11 1 -5.5905 1.6150
15 11 5 -6.2153 2.5254
15 11 6 -3.7911 2.4433
15 11 7 -7.7788 -0.4270
15 11 8 0.2581 6.7330
15 11 9 -3.6253 5.9806
15 11 10 15.9382 2.7104
15 11 11 -4.8905 -3.1009
15 11 12 -4.8327 -0.0311
15 11 13 2.1565 6.3390
15 11 14 -2.3512 0.5147
15 11 15 0.2659 -2.7189
15 11 16 -3.4175 3.2295
15 12 0 5.5453 -0.3229
15 12 5 0.2505 -8.5033
15 12 6 -3.2315 4.4800
15 12 7 4.2032 3.9417
15 12 8 -3.5021 0.3499
15 12 9 5.2410 -1.9722
15 12 10 0.5309 9.1816
15 12 11 7.2955 -0.6992
15 12 12 -1.9907 -7.9275
15 12 13 4.8457 0.1816
15 12 14 -1.2144 0.2256
15 12 15 1.0842 -1.6924
15 13 5 -2.8088 3.6146
15 13 6 3.2450 -7.2890
15 13 7 3.4061 0.6059
15 13 8 -8.7198 -5.7358
15 13 9 -4.3971 2.9448
15 13 10 1.5787 4.4848
15 13 11 1.9118 8.2967
15 13 12 3.6611 -1.3347
15 13 13 -2.5701 -5.1749
15 14 5 4.3640 0.9694
15 14 6 -1.8849 -2.1170
15 14 7 -0.7557 -5.3720
15 14 8 3.9307 0.9449
15 14 9 -9.0604 0.2068
15 14 10 4.9400 -0.0115
15 14 11 2.1543 -4.0193
15 15 5 -0.3358 6.3076
15 15 6 1.9966 0.2619
15 15 7 0.6367 1.6381
15 15 8 8.6427 0.6864
15 15 9 0.5618 -4.8226
16 0 0 1.4406 -0.1148
16 0 1 1.1194 -2.2121
16 0 2 -0.2046 5.1047
16 0 3 -1.0148 -2.0937
16 0 4 -9.3507 -0.0982
16 0 5 2.2271 -1.4014
16 0 6 0.3261 -4.7475
16 0 7 -0.8963 0.0361
16 0 8 -4.2284 0.2854
16 0 9 -2.9670 2.2344
16 0 10 0.0187 2.3346
16 0 11 -1.6271 -2.6994
16 0 12 7.3007 -0.0974
16 0 13 -6.1012 6.9042
16 0 14 0.0894 -3.1922
16 0 15 1.3954 2.0491
16 0 16 -12.2612 0.2129
16 0 17 -5.7592 5.1600
16 0 18 -0.1312 -6.9490
16 0 19 -2.8572 -3.1246
16 0 20 3.1190 0.1021
16 1 0 5.5820 0.5097
16 1 1 2.7046 -3.1493
16 1 2 -5.6616 -3.9229
16 1 3 1.4704 4.7874
16 1 4 -0.9133 -1.6536
16 1 5 -5.4980 9.2791
16 1 6 -1.5616 1.2697
16 1 7 -0.5179 -1.4814
16 1 8 7.0192 -3.1137
16 1 9 -0.5904 1.5411
16 1 10 0.6021 -2.3603
16 1 11 0.5062 -4.1384
16 1 12 -0.5556 3.1250
16 1 13 1.5833 2.3126
16 1 14 -2.6526 5.9281
16 1 15 3.6860 4.3034
16 1 16 7.0412 3.5980
16 1 17 -8.8392 0.8593
16 1 18 1.6641 2.1259
16 1 19 -4.5280 -1.6692
16 1 20 -5.4581 4.4645
16 2 0 -2.3300 0.0837
16 2 1 2.3654 0.7933
16 2 2 0.1512 -6.8323
16 2 3 -2.1178 1.4065
16 2 4 2.4117 0.5128
16 2 5 0.9891 -2.7120
16 2 6 1.6845 8.2901
16 2 7 -5.5500 0.4628
16 2 8 2.2980 -3.2251
16 2 9 -3.4562 -0.7846
16 2 10 -6.6287 -2.0216
16 2 11 1.2627 1.2509
16 2 12 -3.1594 0.6869
16 2 13 6.2875 3.8522
16 2 14 8.5995 1.9009
16 2 15 3.0918 -4.1347
16 2 16 5.6332 3.0465
16 2 17 -1.9521 -1.0628
16 2 18 -1.1075 -3.1205
16 2 19 7.3562 -0.4110
16 3 0 -10.2956 -0.1682
16 3 1 -5.8262 4.7049
16 3 2 5.2533 3.4617
16 3 3 -0.5802 -1.5615
16 3 4 -2.8586 2.6359
16 3 5 -3.2430 1.2792
16 3 6 -0.7726 1.9183
16 3 7 0.2853 5.0394
16 3 8 0.5078 3.4728
16 3 9 6.3017 4.7505
16 3 10 2.2242 -0.8987
16 3 11 4.4634 -0.9248
16 3 12 -1.2524 -5.6619
16 3 13 -2.0331 -6.9762
16 3 14 -1.3666 -0.5295
16 3 15 4.4101 -2.4172
16 3 16 -2.3035 1.6539
16 3 17 -0.4868 6.2063
16 3 18 -0.9514 4.0788
16 3 19 0.8797 -3.1241
16 4 0 0.7918 0.4854
16 4 1 -7.0691 0.7765
16 4 2 5.0233 3.0261
16 4 3 6.3553 -1.4040
16 4 4 1.5335 -6.3052
16 4 5 5.8124 7.9424
16 4 6 -6.2033 1.3436
16 4 7 1.6737 2.5567
16 4 8 -4.2735 2.4787
16 4 9 -0.4614 -0.8055
16 4 10 3.2098 1.0261
16 4 11 -1.5002 0.4269
16 4 12 -2.8911 -2.6637
16 4 13 -2.7081 -1.2551
16 4 14 -4.6282 -1.7544
16 4 15 -2.6368 3.2463
16 4 16 4.2420 -0.2844
16 4 17 6.7138 2.9847
16 4 18 -1.5145 -0.1042
16 4 19 1.5986 -1.3969
16 5 0 -3.3560 0.3250
16 5 1 -3.0173 -0.0891
16 5 2 0.1519 7.7578
16 5 3 7.9737 1.7569
16 5 4 6.3194 -12.2890
16 5 5 5.5234 -4.3619
16 5 6 2.7542 -3.8543
16 5 7 -1.2511 -5.6572
16 5 8 1.0882 6.8982
16 5 9 -1.9022 -0.1273
16 5 10 0.6827 1.2806
16 5 11 -0.2660 0.9182
16 5 12 0.1464 0.1622
16 5 13 0.7435 0.4033
16 5 14 5.1019 1.1528
16 5 15 1.3333 -5.7197
16 5 16 2.4395 -4.5448
16 5 17 2.0261 4.0575
16 5 18 3.5113 -0.7770
16 6 0 -6.5797 -0.3088
16 6 1 -3.9479 -2.7019
16 6 2 -3.2543 -2.4252
16 6 3 1.5726 0.1206
16 6 4 7.4781 -0.6763
16 6 5 -3.4994 -5.6301
16 6 6 2.7016 2.0826
16 6 7 -5.6719 -6.4863
16 6 8 3.8389 -1.5277
16 6 9 0.9103 6.6660
16 6 10 2.8240 -5.5208
16 6 11 -7.1836 -0.9788
16 6 12 -4.5853 -0.5090
16 6 13 -9.0478 5.8004
16 6 14 -1.1375 -2.5998
16 6 15 2.4468 -2.1677
16 6 16 -0.5312 -12.1986
16 6 17 -1.9038 -7.7683
16 6 18 1.4803 4.8585
16 7 0 3.0596 0.4880
16 7 1 -4.3280 11.3678
16 7 2 2.0878 -0.6216
16 7 3 -1.0739 -3.0641
16 7 4 -0.2062 -9.0064
16 7 5 7.8443 -7.3054
16 7 6 -0.0586 4.0653
16 7 7 0.5172 -3.6419
16 7 8 0.1016 -4.3032
16 7 9 1.7981 -2.8869
16 7 10 2.9098 6.4960
16 7 11 1.5525 4.5848
16 7 12 5.5580 3.1409
16 7 13 4.2293 5.1060
16 7 14 -2.8439 6.5130
16 7 15 -5.1096 -0.3378
16 7 16 -1.0873 2.8791
16 7 17 -1.4829 -3.8675
16 8 0 -2.8793 -0.1404
16 8 1 0.0866 -0.9908
16 8 2 -3.7411 13.0172
16 8 3 -6.1750 1.1747
16 8 4 1.2366 -5.3909
16 8 5 -5.3843 -4.4941
16 8 6 -5.4403 -5.9914
16 8 7 -2.1542 2.2738
16 8 8 -5.7831 -7.5019
16 8 9 -0.7159 -2.0555
16 8 10 -4.0412 -3.9275
16 8 11 0.7932 -0.5708
16 8 12 5.2890 -5.2108
16 8 13 0.1502 -7.6889
16 8 14 -6.4994 2.6622
16 8 15 -4.2189 2.5131
16 8 16 0.1042 6.5186
16 8 17 2.5688 5.1427
16 9 0 10.0666 -0.2152
16 9 1 -4.2476 6.7694
16 9 2 5.5725 -1.0876
16 9 3 -5.6895 9.2742
16 9 4 -2.4222 3.1554
16 9 7 -6.1487 10.7838
16 9 8 1.5088 2.3953
16 9 9 -0.5308 5.5848
16 9 10 -6.6244 2.8761
16 9 11 -0.0381 -4.5479
16 9 12 3.5099 9.2742
16 9 13 -2.7389 -0.2331
16 9 14 -1.6312 0.6511
16 9 15 4.7360 5.1994
16 9 16 1.6921 -3.1412
16 9 17 9.1340 -5.3110
16 10 0 6.0843 0.4085
16 10 1 0.6562 -10.2890
16 10 2 7.4996 15.1589
16 10 3 3.7553 -4.2703
16 10 8 8.7715 4.0462
16 10 9 10.7444 -0.8619
16 10 10 -3.8628 -0.8761
16 10 11 -3.0524 -5.5872
16 10 12 4.1127 4.1244
16 10 13 4.9104 -0.2674
16 10 14 -2.4018 -1.7794
16 10 15 -3.5113 1.5897
16 10 16 -3.7599 -2.1935
16 11 0 -12.8489 -0.3959
16 11 1 9.1375 -13.5189
16 11 8 -0.0574 -1.5982
16 11 9 10.1929 -4.8831
16 11 10 -0.2772 -0.1063
16 11 11 -9.0016 -8.5128
16 11 12 -0.4287 4.5697
16 11 13 5.0071 5.2938
16 11 14 3.0390 -3.2410
16 12 0 -6.5902 -0.0432
16 12 8 4.9050 -7.6932
16 12 9 1.2592 3.5474
16 12 10 0.8682 -2.5682
16 12 11 1.2815 -4.6318
16 12 12 -4.7414 -7.8769
16 12 13 -2.5817 5.1107
16 13 8 -4.9328 6.2530
16 13 9 4.2628 3.1065
16 13 10 3.4827 3.1899
16 13 11 3.4274 -1.5227
16 14 8 -4.2143 1.7685
16 14 9 -1.1537 -0.8302
17 0 1 2.7734 2.7679
17 0 2 1.3485 -0.0936
17 0 3 -0.6144 0.8898
17 0 4 -0.1593 3.8166
17 0 5 2.3907 2.2957
17 0 6 -0.4593 -0.1672
17 0 7 1.8098 -1.6969
17 0 8 0.3019 1.3433
17 0 9 8.5345 8.3516
17 0 10 4.2321 0.2236
17 0 11 2.5021 -2.2935
17 0 12 -0.0808 10.5166
17 0 13 -2.0967 -2.0922
17 0 14 8.1883 -0.2537
17 0 15 -2.0942 2.0988
17 0 16 0.1583 7.6828
17 0 17 3.2523 3.3419
17 0 18 -2.5862 0.3975
17 1 0 -0.0296 -0.6547
17 1 1 -8.4196 -2.9954
17 1 2 4.7309 0.9237
17 1 3 -2.4425 -1.0332
17 1 4 2.3133 -1.1802
17 1 5 -1.2619 2.2974
17 1 6 -2.5263 -2.9779
17 1 7 4.8933 -1.9723
17 1 8 7.5810 0.6293
17 1 9 -5.4457 -7.6274
17 1 10 6.2721 0.4629
17 1 11 2.5855 0.9770
17 1 12 -0.9145 0.9107
17 1 13 1.4161 7.4905
17 1 14 2.2594 -2.6380
17 1 15 4.9623 -6.8819
17 1 16 -2.8133 -1.7107
17 1 17 6.3812 -1.1347
17 1 18 2.5060 0.4641
17 2 0 -0.3115 -0.4564
17 2 1 2.0204 -1.8628
17 2 2 -0.1514 4.4507
17 2 3 2.1142 -2.0962
17 2 4 -3.8161 -0.1650
17 2 5 2.2874 1.9472
17 2 6 -3.2922 -6.8984
17 2 7 -0.5764 -8.3824
17 2 8 0.1357 4.2039
17 2 9 2.2334 -4.8800
17 2 10 -4.1101 -0.7048
17 2 11 1.8805 1.9686
17 2 12 8.3712 -6.9361
17 2 13 4.2719 2.6224
17 2 14 -0.2097 -3.6394
17 2 15 0.6661 -5.3434
17 2 16 -10.5342 -0.5887
17 2 17 -3.4185 -2.3678
17 2 18 3.3264 -3.7008
17 3 0 -3.9624 0.9009
17 3 1 6.9061 1.7347
17 3 2 2.1102 -2.5694
17 3 3 4.0911 -0.1508
17 3 4 3.5658 0.8157
17 3 5 -8.6501 4.5337
17 3 6 4.2611 0.3569
17 3 7 -7.4327 -7.9331
17 3 8 1.4035 -5.6880
17 3 9 5.8934 5.9480
17 3 10 1.6614 -9.6962
17 3 11 -10.3908 -3.6215
17 3 12 -4.1877 -6.5122
17 3 13 -8.8655 -0.4092
17 3 14 0.9114 3.0783
17 3 15 2.7633 3.0296
17 3 16 -0.8879 -0.0349
17 3 17 -3.4141 3.6221
17 3 18 2.8498 -3.2406
17 4 0 -4.7178 0.3969
17 4 1 0.2182 -1.3022
17 4 2 0.2589 -5.0597
17 4 3 -11.0282 -3.7810
17 4 4 7.2032 -1.9868
17 4 5 -1.5863 2.1631
17 4 6 -12.3499 7.7862
17 4 7 -0.9891 1.2049
17 4 8 -4.6904 -5.1728
17 4 9 1.4870 -0.9298
17 4 10 3.4370 4.2233
17 4 11 -3.4651 0.3949
17 4 12 -3.6666 8.0711
17 4 13 -0.4558 0.7140
17 4 14 -4.4758 8.6913
17 4 15 6.8301 0.1394
17 4 16 9.0006 1.7501
17 4 17 -6.2994 -2.4511
17 4 18 -2.8129 -4.8416
17 5 0 -2.8856 0.5541
17 5 1 7.9913 14.0193
17 5 2 6.7219 1.6882
17 5 3 -3.1329 -3.0848
17 5 4 -4.6345 3.9479
17 5 5 5.8110 1.9379
17 5 6 -6.5383 0.3210
17 5 7 -2.1111 14.2852
17 5 8 -5.3568 5.9688
17 5 9 -0.3576 -4.1602
17 5 10 0.3083 1.0364
17 5 11 3.7650 1.5805
17 5 12 3.9412 2.4082
17 5 13 6.2445 2.8418
17 5 14 -2.2759 -7.4381
17 5 15 -1.7936 -2.9199
17 5 16 2.3658 3.1071
17 5 17 1.2406 1.7055
17 6 0 4.1646 0.4194
17 6 1 -0.6553 0.2707
17 6 2 13.3185 -0.4889
17 6 3 7.0780 -8.6839
17 6 4 -2.6296 3.8115
17 6 5 0.0253 1.1873
17 6 6 4.3279 -2.9249
17 6 7 4.9736 1.4660
17 6 8 7.5300 8.0713
17 6 9 2.3826 -0.2392
17 6 10 -0.9363 -3.9910
17 6 11 -0.5957 -4.7101
17 6 12 5.3246 7.8058
17 6 13 -1.6498 -1.9811
17 6 14 8.9404 -0.1946
17 6 15 -4.9995 -2.2610
17 6 16 -6.9934 -0.7983
17 6 17 0.8581 4.1396
17 7 0 6.9458 -0.6584
17 7 1 -1.2595 -13.1223
17 7 2 0.7617 -3.3408
17 7 3 0.2019 -17.2818
17 7 4 -1.6568 -7.6216
17 7 5 -1.7748 6.4786
17 7 6 -7.0903 -1.2547
17 7 7 -5.2856 -8.4367
17 7 8 4.4571 -4.8461
17 7 9 -5.3323 0.7742
17 7 10 -1.6922 -0.9650
17 7 11 -0.9942 -4.0165
17 7 12 1.8759 -3.8034
17 7 13 0.8615 -4.7607
17 7 14 -4.9377 -5.9912
17 7 15 10.3394 -0.6150
17 7 16 1.0341 -0.1846
17 8 0 -11.9539 -0.4694
17 8 1 5.2085 8.7912
17 8 2 -13.3180 3.7796
17 8 3 3.9429 -5.7868
17 8 4 -2.3775 -4.3525
17 8 5 -1.5992 1.7682
17 8 6 2.0934 6.9743
17 8 7 -4.6562 2.0791
17 8 8 1.2978 4.5897
17 8 9 -4.5870 0.1135
17 8 10 -3.5165 6.9353
17 8 11 1.8605 1.6575
17 8 12 -7.4375 7.6960
17 8 13 -4.3540 4.7529
17 8 14 -7.9876 -0.6102
17 8 15 -0.6325 3.1936
17 9 0 1.9389 -0.1949
17 9 1 1.1356 1.8643
17 9 2 4.6949 8.1739
17 9 3 -3.3132 2.4277
17 9 4 2.3053 -6.8943
17 9 8 10.7759 0.6445
17 9 9 4.5115 -1.5159
17 9 10 -4.2172 -10.5782
17 9 11 17.2878 3.7596
17 9 12 -4.2632 1.5453
17 9 13 1.8396 5.1917
17 9 14 8.5162 0.0876
17 10 0 -8.1536 0.0496
17 10 1 7.7849 2.4793
17 10 2 -3.9719 -1.7865
17 10 3 1.7912 7.2348
17 10 11 1.6893 2.8066
17 10 12 6.6417 -3.0055
17 10 13 -5.8707 -0.2261
17 11 0 1.6518 0.6533
17 11 1 -2.1448 10.2582
17 11 2 -1.8150 -1.3618
17 11 11 -3.2671 0.7669
17 11 12 8.5020 3.7603
17 12 0 14.4710 0.5480
17 12 11 -8.5571 -2.4180
18 0 0 -1.0047 0.7280
18 0 1 -0.4605 0.0065
18 0 2 -0.5085 -0.5640
18 0 3 -1.1895 -0.8272
18 0 4 1.6830 -0.5701
18 0 5 -3.7543 3.3605
18 0 6 0.5982 -2.8985
18 0 7 -7.0492 -7.6803
18 0 8 0.1142 0.3812
18 0 9 -0.9591 1.4165
18 0 10 -0.3970 -1.9807
18 0 11 -1.3611 -1.1337
18 0 12 -8.9549 -0.3489
18 0 13 0.1934 -0.6498
18 0 14 0.2900 -7.9811
18 0 15 -4.1943 -4.4985
18 0 16 4.2032 0.4727
18 1 0 -5.9510 0.5449
18 1 1 2.4903 -0.7918
18 1 2 4.7279 8.0506
18 1 3 -4.0478 -0.8220
18 1 4 -0.9833 9.6902
18 1 5 -4.2935 2.0862
18 1 6 1.2967 11.7204
18 1 7 10.5386 2.8393
18 1 8 -8.7609 -1.5039
18 1 9 2.1608 -5.0512
18 1 10 -5.6815 5.7158
18 1 11 1.8267 2.3556
18 1 12 5.9232 3.1110
18 1 13 -4.1930 2.6793
18 1 14 0.3949 3.4195
18 1 15 -4.5217 -2.6351
18 1 16 -1.9246 -1.1817
18 2 0 3.6827 -0.0782
18 2 1 3.8564 -2.5440
18 2 2 0.6403 -7.3345
18 2 3 8.8909 -1.8112
18 2 4 -1.3194 2.2810
18 2 5 4.6335 0.2028
18 2 6 -2.8718 -6.3522
18 2 7 1.8266 12.4178
18 2 8 2.1246 -2.4231
18 2 9 -2.3084 8.6686
18 2 10 -2.0953 -3.1975
18 2 11 -3.5529 -5.1525
18 2 12 5.3278 2.9052
18 2 13 2.2018 -4.6183
18 2 14 -1.0434 -4.5611
18 2 15 -1.0221 11.1900
18 2 16 -2.8280 2.8191
18 2 17 1.5635 -0.6249
18 3 0 2.8402 0.5812
18 3 1 0.6189 -2.7944
18 3 2 -6.3653 -6.3503
18 3 3 0.2448 -7.4156
18 3 4 -0.9300 -1.2969
18 3 5 -0.9207 -3.7414
18 3 6 3.1652 1.4296
18 3 7 -2.2839 -5.4046
18 3 8 15.2631 9.8772
18 3 9 -2.9561 -2.5640
18 3 10 -1.7203 4.8138
18 3 11 -4.2759 -3.3175
18 3 12 -10.9820 6.0231
18 3 13 1.0219 6.5493
18 3 14 11.1221 -4.1635
18 3 15 -0.1952 -4.3682
18 3 16 1.6826 6.8232
18 3 17 2.6484 -3.3823
18 4 0 -4.8569 -1.2642
18 4 1 1.5481 -0.7547
18 4 2 -7.9310 3.4794
18 4 3 -7.1190 2.5881
18 4 4 3.6610 -1.1623
18 4 5 -7.7607 5.7371
18 4 6 -6.1781 -4.1522
18 4 7 8.9604 -2.7005
18 4 8 2.6352 -4.2484
18 4 9 6.6874 -1.9795
18 4 10 -2.9596 1.0226
18 4 11 5.3995 8.3689
18 4 12 5.2751 -4.7825
18 4 13 -3.9575 4.4026
18 4 14 2.2168 -2.4195
18 4 15 12.1618 -10.7376
18 4 16 -7.5890 -3.9893
18 5 0 12.3673 -0.8681
18 5 1 1.2955 5.8510
18 5 2 6.6364 -9.6625
18 5 3 -2.3162 2.1417
18 5 4 3.3798 0.5177
18 5 5 2.3289 -0.5105
18 5 6 -1.4793 2.1201
18 5 7 -4.6737 4.2418
18 5 8 3.5244 -7.7846
18 5 9 3.8920 -2.3840
18 5 10 0.5814 -1.7187
18 5 11 1.9335 -2.2291
18 5 12 5.9666 1.3032
18 5 13 -2.9152 -10.4770
18 5 14 -8.7071 0.6036
18 5 15 -4.2536 4.1514
18 5 16 0.2465 -7.2170
18 6 0 6.9044 0.5812
18 6 1 -1.2246 -4.3954
18 6 2 -1.2998 3.8853
18 6 3 -4.1143 -1.1013
18 6 4 -9.8183 3.4955
18 6 5 -0.8018 -2.6656
18 6 6 4.1322 3.4551
18 6 7 -1.9138 0.1242
18 6 8 -0.3503 -4.7566
18 6 9 -4.3368 -5.8427
18 6 10 -6.0828 -5.4726
18 6 11 4.0697 4.8166
18 6 12 -12.0358 0.0359
18 6 13 6.5797 -5.8096
18 6 14 0.1051 4.0240
18 6 15 -8.0468 8.0230
18 7 0 -8.4462 -0.0985
18 7 1 6.4524 -14.6614
18 7 2 -7.0300 2.2313
18 7 3 0.0374 6.1948
18 7 4 2.0650 12.9894
18 7 5 0.0117 5.8917
18 7 6 -5.6526 2.8302
18 7 7 5.9716 -0.2479
18 7 8 -5.0955 12.8050
18 7 9 -6.4471 -2.8068
18 7 10 2.6407 2.9303
18 7 11 0.1674 6.3142
18 7 12 3.4264 0.6632
18 7 13 -9.6517 0.0091
18 7 14 5.3299 -3.7030
18 7 15 2.6257 2.0451
18 8 0 -11.7801 1.0328
18 8 1 0.7445 5.7300
18 8 2 4.0983 -20.5467
18 8 3 6.2305 -4.7442
18 8 4 -2.8368 0.2079
18 8 5 9.1462 1.2109
18 8 7 6.3199 2.1217
18 8 8 -1.8958 3.5607
18 8 9 1.9720 6.2871
18 8 10 1.4448 -2.6583
18 8 11 3.2670 1.1182
18 8 12 3.0218 2.0832
18 8 13 5.5650 -2.7859
18 8 14 0.5209 1.5851
18 9 0 1.5486 0.8524
18 9 1 -10.2861 12.7373
18 9 2 -5.5542 -3.6275
18 9 3 1.0005 -13.5473
18 9 4 -4.0891 -0.3170
18 9 9 -8.9555 -0.7136
18 9 10 6.3852 -0.0646
18 9 11 -6.7238 8.6199
18 9 12 -8.3270 -3.9205
18 10 0 24.8548 -0.7517
18 10 1 -1.5214 6.8039
18 10 2 -2.1833 8.4450
18 10 3 -1.3224 1.6476
18 10 12 -0.2929 4.7973
18 11 0 2.2040 0.0690
18 11 1 7.8958 -4.6393
18 12 0 -2.4804 -0.3605
19 0 1 0.2700 -0.0253
19 0 2 -4.2415 0.1068
19 0 3 7.4285 -7.2069
19 0 4 0.0021 1.3927
19 0 5 -0.2097 -0.1251
19 0 6 -4.1126 -0.1115
19 0 7 0.8909 -1.0215
19 0 8 -0.0783 7.0505
19 0 9 -1.1228 -1.2342
19 0 10 -3.1988 -0.0600
19 0 11 6.6347 -6.3063
19 0 12 0.0412 0.0817
19 0 13 2.6579 3.0343
19 0 14 -2.0322 0.1541
19 1 0 -4.6362 -0.5042
19 1 1 7.5757 3.2463
19 1 2 -9.2554 -2.3217
19 1 3 -0.5937 1.5638
19 1 4 3.7929 -3.9973
19 1 5 12.9493 1.3184
19 1 6 6.4246 -2.2310
19 1 7 3.5499 -5.2500
19 1 8 -5.8075 -8.3876
19 1 9 -0.7579 5.2847
19 1 10 -8.6733 -5.4512
19 1 11 0.9154 3.3412
19 1 12 2.9108 -9.0742
19 1 13 1.6165 -3.8499
19 1 14 1.2246 -0.2149
19 1 15 1.2139 -0.2138
19 2 0 -0.2634 -0.6041
19 2 1 -7.0564 3.1703
19 2 2 3.9361 -3.4364
19 2 3 -12.4482 8.9333
19 2 4 -3.5025 -1.9703
19 2 5 -3.0201 -5.4130
19 2 6 1.1284 -0.6946
19 2 7 1.4541 3.3952
19 2 8 3.6100 2.6174
19 2 9 -4.4509 6.7996
19 2 10 7.5257 -1.4414
19 2 11 -8.5568 3.1096
19 2 12 -3.5073 8.0594
19 2 13 -2.1755 -7.6697
19 2 14 0.3728 0.1606
19 2 15 -2.5498 3.7876
19 3 0 2.2786 0.9214
19 3 1 -6.7310 0.7182
19 3 2 1.5023 4.0313
19 3 3 6.2702 0.3033
19 3 4 -6.7237 11.3253
19 3 5 2.3152 3.6133
19 3 6 -2.9627 -4.2140
19 3 7 8.6762 -2.7948
19 3 8 2.1875 -3.1183
19 3 9 -6.4283 -7.4344
19 3 10 5.1614 4.7827
19 3 11 7.3281 -2.3275
19 3 12 -4.4251 6.2735
19 3 13 7.7198 4.1779
19 3 14 1.7207 -2.9437
19 3 15 -2.1136 0.1509
19 4 0 0.2009 0.1916
19 4 1 -1.3611 -2.4870
19 4 2 -6.0190 5.5146
19 4 3 7.7841 -5.8106
19 4 4 7.8768 2.5498
19 4 5 -8.7709 8.1329
19 4 6 11.6213 -1.7455
19 4 7 -4.0999 0.1234
19 4 8 -1.2084 1.4847
19 4 9 -6.6666 -3.4271
19 4 10 -7.7049 5.0019
19 4 11 7.1457 -2.5643
19 4 12 2.2829 -8.7452
19 4 13 -6.8466 -1.6064
19 5 0 2.6076 0.3175
19 5 1 -1.7593 -7.8779
19 5 2 -3.8113 -7.2002
19 5 3 -8.3877 -3.6271
19 5 4 1.8411 -10.6115
19 5 5 2.8077 -4.6170
19 5 6 -1.8348 5.5345
19 5 7 7.2830 -8.7501
19 5 8 2.2108 1.7149
19 5 9 4.8411 5.1794
19 5 10 -3.2291 -3.7532
19 5 11 -2.7089 6.8609
19 5 12 -3.6845 -3.9408
19 5 13 -1.8256 -2.6999
19 6 0 -1.7694 0.7652
19 6 1 0.0411 9.3842
19 6 2 -2.7065 3.9317
19 6 3 -10.1175 4.0996
19 6 4 -8.0382 -0.5967
19 6 5 3.0715 0.2840
19 6 6 -2.4156 -2.6672
19 6 7 -0.7867 -5.9813
19 6 8 -1.9757 -7.1979
19 6 9 -5.8456 0.5758
19 6 10 10.9184 3.3856
19 6 11 -4.5896 6.0918
19 6 12 0.2093 -3.5577
19 7 0 -0.6257 -0.7646
19 7 1 5.8663 10.0316
19 7 2 0.5947 13.4687
19 7 3 7.7602 7.9705
19 7 4 0.9776 5.0583
19 7 5 -5.9598 1.4262
19 7 6 0.7492 -5.3998
19 7 7 2.9802 8.2469
19 7 8 -9.3496 0.3078
19 7 9 5.0088 -6.5776
19 7 10 -0.1033 4.5048
19 7 11 5.2453 -4.9746
19 7 12 -1.1168 -1.9823
19 8 0 5.0216 -0.2147
19 8 1 5.3079 -8.0021
19 8 2 11.3770 -4.6748
19 8 3 -3.0086 6.8907
19 8 4 2.7607 3.9761
19 8 5 -4.1261 2.3340
19 8 8 3.1116 4.5307
19 8 9 1.9776 3.2671
19 8 10 1.1144 -3.3709
19 8 11 -4.0839 1.8550
19 9 0 -6.3772 0.1001
19 9 1 -7.2478 -7.0109
19 9 2 6.2204 -10.6352
19 9 3 3.9309 -4.2154
19 9 4 -2.4268 8.9115
19 10 0 -1.0589 -0.4415
19 10 1 -9.6578 -2.5393
19 10 2 -3.2397 1.8789
19 10 3 4.2133 -13.6051
19 11 0 3.1895 0.4928
19 11 1 3.9567 4.9574
19 12 0 -3.3707 0.3745
20 0 0 5.0692 -0.5263
20 0 1 -3.8632 4.3717
20 0 2 0.4321 -10.0889
20 0 3 1.7281 2.3297
20 0 4 4.1994 0.4497
20 0 5 -4.4700 3.9640
20 0 6 -0.3615 3.2690
20 0 7 2.4382 2.2420
20 0 8 2.8239 -0.3899
20 0 9 -1.6101 1.9657
20 0 10 0.2745 -0.7760
20 0 11 0.8888 1.3474
20 0 12 -0.3229 0.4874
20 1 0 12.0060 -0.3950
20 1 1 -0.6819 2.4915
20 1 2 2.3013 -0.0469
20 1 3 -6.4350 -4.2129
20 1 4 8.7190 -0.1444
20 1 5 2.1692 -8.3542
20 1 6 -5.8597 -7.4951
20 1 7 -6.3441 -1.2367
20 1 8 -3.5152 1.0033
20 1 9 -0.6274 -1.1162
20 1 10 2.2939 7.1286
20 1 11 -0.6941 0.5238
20 1 12 2.5587 0.0020
20 1 13 -0.4784 -0.6933
20 2 0 -5.7848 0.1977
20 2 1 3.6235 -7.6288
20 2 2 6.6588 10.6435
20 2 3 -0.3883 -2.8023
20 2 4 -6.2381 6.1863
20 2 5 1.1429 -0.9842
20 2 6 0.5739 -1.2964
20 2 7 -0.3009 2.6229
20 2 8 -2.6520 0.0268
20 2 9 7.7996 -8.7862
20 2 10 0.0775 -4.7754
20 2 11 1.4507 1.4500
20 2 12 0.2692 -0.6598
20 2 13 4.0489 -0.6575
20 3 0 -10.6051 0.1796
20 3 1 0.2947 3.4136
20 3 2 4.4772 -6.2461
20 3 3 15.3302 4.5521
20 3 4 -4.6332 -0.8317
20 3 5 2.0340 5.3449
20 3 6 -2.2430 -5.4113
20 3 7 -3.6318 0.0897
20 3 8 -10.5071 0.1833
20 3 9 -4.8091 4.1321
20 3 10 0.4894 -3.3689
20 3 11 -4.7774 -1.7538
20 3 13 1.7518 2.2670
20 4 0 -2.1639 0.2706
20 4 1 -1.4540 7.4812
20 4 2 -4.5226 -0.8664
20 4 3 8.3115 -2.5749
20 4 4 5.7189 0.9010
20 4 5 3.1682 0.2657
20 4 6 7.5588 4.9764
20 4 7 -3.9534 0.8526
20 4 8 0.8809 4.0592
20 4 9 2.1256 6.6092
20 4 10 4.2659 4.2423
20 4 11 -0.4357 -0.8679
20 5 0 -1.2224 -0.0195
20 5 1 0.3366 -6.6806
20 5 2 -3.9411 0.0618
20 5 3 -12.4485 0.2409
20 5 4 5.8199 -0.0165
20 5 5 -2.1036 -0.3095
20 5 6 0.0787 -4.1423
20 5 7 2.7233 -1.2720
20 5 8 -3.3800 -1.6374
20 5 9 -0.6728 -5.1039
20 5 10 5.1247 -0.7181
20 6 0 -2.9976 0.1170
20 6 1 -3.2863 -0.5111
20 6 2 1.1258 -4.4271
20 6 3 -2.1512 -4.8120
20 6 4 0.9800 9.9342
20 6 5 7.2514 -0.4773
20 6 6 -1.8361 -2.3359
20 6 7 -3.3063 2.9706
20 6 8 -5.3656 4.7256
20 6 9 -1.6380 -0.1343
20 6 10 -0.7511 2.4870
20 7 0 13.0896 -0.1152
20 7 1 -2.1273 13.0496
20 7 2 -0.8388 -2.3926
20 7 3 5.7809 -4.5463
20 7 4 -8.5233 -8.7341
20 7 5 2.9022 -0.4157
20 7 6 11.3643 -3.3437
20 7 7 -3.0003 6.6833
20 7 8 2.6790 -2.3128
20 7 9 2.5529 6.0059
20 8 0 11.9717 -0.1759
20 8 1 8.6384 -6.2091
20 8 2 -0.6330 7.0723
20 8 3 -6.8957 6.9906
20 8 4 1.3859 0.3457
20 8 5 -6.7551 -1.6555
20 9 0 -14.7263 0.1204
20 9 1 6.1258 -7.3266
20 9 2 6.8527 -3.4606
20 9 3 -2.2090 2.5391
21 0 1 -1.2994 -1.4999
21 0 2 -5.0214 0.2732
21 0 3 -6.3201 6.1526
21 0 4 -0.0291 -8.2902
21 0 5 -2.5940 -2.5203
21 0 6 7.2839 0.2487
21 0 7 3.2669 -3.3964
21 0 8 -0.0446 -0.1962
21 0 9 3.3796 3.8557
21 0 10 -0.3330 0.1253
21 1 0 -4.4943 0.7432
21 1 1 0.4723 -2.8380
21 1 2 -0.0399 -1.4151
21 1 3 -3.7576 6.1697
21 1 4 -0.2783 4.2289
21 1 5 -10.8899 -5.1576
21 1 6 -4.6117 1.9769
21 1 7 -5.2111 5.1945
21 1 8 2.7896 -4.7709
21 2 0 0.7874 0.7022
21 2 1 4.8623 4.4017
21 2 2 1.0030 -1.1243
21 2 3 -1.2006 -0.7094
21 2 4 2.3396 3.3894
21 2 5 4.3609 -3.0281
21 2 6 3.8604 6.3891
21 2 7 -3.3629 -0.5482
21 2 8 -0.3134 0.0197
21 2 9 -5.0748 -4.3462
21 3 0 6.5562 -0.6656
21 3 1 6.4703 -5.3280
21 3 2 9.5485 -8.2738
21 3 3 -7.6813 0.6048
21 3 4 -3.7437 -2.9049
21 3 5 -2.1420 -3.9289
21 3 6 -4.4483 -4.4199
21 3 7 8.1911 1.7459
21 3 8 1.1273 6.4276
21 4 0 -4.7532 -0.3195
21 4 1 0.0802 4.8354
21 4 2 2.0480 -8.0978
21 4 3 3.8156 -2.2026
21 4 4 -1.5046 5.3874
21 4 5 1.4523 2.4019
21 4 6 -9.5823 -3.8495
21 4 7 -2.2689 -3.4472
21 4 8 6.0928 -7.0401
21 5 0 0.1194 -0.2591
21 5 1 -4.8470 6.3012
21 5 2 -4.5113 6.4128
21 5 3 1.1807 -0.7993
21 5 4 5.2845 3.6932
21 5 5 2.2806 2.5627
21 5 6 2.6662 4.4432
21 5 7 -9.6778 5.3754
21 6 0 3.7367 -0.4801
21 6 1 0.6730 -4.2813
21 6 2 2.3904 4.9616
21 6 3 2.2213 2.4213
21 6 4 1.6040 -2.8283
21 6 6 2.4053 1.6280
21 6 7 1.0987 2.4648
21 7 0 0.7394 0.8583
22 0 0 0.9669 -0.4771
22 0 1 2.8967 -3.0611
22 0 2 0.0602 5.5234
22 0 3 -2.9369 -3.3990
22 0 4 1.4920 0.5830
22 1 0 -6.5204 -0.2624
22 1 1 -0.2159 2.5314
22 1 2 -2.2352 3.6394
22 1 3 3.2154 1.2100
22 1 4 -4.7915 -3.4267
22 1 5 4.4143 -0.6095
22 1 6 2.8820 3.3131
22 2 0 12.6082 0.2932
22 2 1 0.7335 -0.4935
22 2 2 -4.9979 3.4544
22 2 3 -0.7700 4.1556
22 2 4 -1.3578 -5.8883
22 2 5 -2.9188 -2.8368
22 3 1 6.0350 -12.5730
22 3 2 -3.1752 -0.2072
22 3 3 -7.5969 8.5753
22 3 4 3.1204 8.5028
22 4 3 3.5849 -1.4006
0 0 0 0.0 0.0
;
loop_
_diffrn_refln_index_h
_diffrn_refln_index_k
_diffrn_refln_index_l
_diffrn_refln_intensity_net
_diffrn_refln_intensity_u
0 0 -2 2.52 3.52
0 0 2 -0.06 1.76
0 0 -2 2.8 2.77
0 0 -3 2.95 5.63
0 0 3 3.56 3.36
0 0 -3 5.94 4.25
0 0 -4 1284.77 14.18
0 0 -4 1230.22 11.78
0 0 4 1228.66 11.17
0 0 -5 -5.61 8.97
0 0 5 0.38 1.49
0 0 -5 -10.97 7.06
0 0 5 2.56 5.91
0 0 -6 -2.01 9.43
0 0 6 -0.45 1.62
0 0 -6 -1.29 7.31
0 0 6 -2.02 6.07
0 0 -7 -11.24 9.8
0 0 7 1.3 1.87
0 0 7 1.56 6.53
0 0 -7 -0.43 7.46
0 0 -8 546.88 15.78
0 0 8 613.76 12.12
0 0 -8 607.21 13.02
0 0 9 -0.74 7.1
0 0 -9 3.63 8.39
0 0 -9 3.27 7.19
0 0 -9 5.41 11.31
0 0 9 -0.98 2.46
0 0 10 1.64 7.21
0 0 -10 3.43 8.58
0 0 -10 5.17 7.27
0 0 10 -2.16 2.8
0 0 -10 2.18 11.96
0 0 11 5.68 7.43
0 0 -11 -5.32 12.32
0 0 -11 7.02 7.26
0 0 -11 -2.43 9.44
0 0 -12 553.88 26.23
0 0 12 479.86 21.8
0 0 -12 524.9 23.24
0 0 -13 8.8 10.32
0 0 -13 10.42 13.54
0 0 -14 -9.89 10.65
0 0 -14 15.67 13.97
0 0 -15 -0.97 10.94
0 0 -15 -0.68 15.09
0 0 -16 314.81 22.85
0 0 -16 321.78 19.05
0 0 -17 -0.78 16.45
0 0 -17 43.58 12.82
0 0 -18 -39.16 18.11
0 0 -18 -4.04 12.66
0 0 -19 8.86 17.95
0 0 -19 12.18 13.28
0 0 -20 121.15 21.51
0 0 -21 -4 20.15
0 0 -22 38.88 21.96
0 0 -23 1.1 22.02
0 0 -24 148.33 26.36
0 0 -25 44.16 24.79
0 0 -26 -18.52 25.65
0 0 -27 38.19 26.43
0 0 -28 33.98 27.75
-1 0 -2 4372.35 19.36
0 1 -2 4471.87 17.81
0 -1 -2 4420.35 19.23
1 0 -2 4318.12 18.61
-1 0 -2 4299.87 20.1
0 1 2 4557.14 19.16
0 -1 3 9.74 27.17
0 1 -3 1564.24 29.18
0 -1 3 1626.3 29.04
1 0 -3 1557.3 28.52
-1 0 3 1544.7 28.42
-1 0 -3 1579.81 29.76
0 -1 -3 1578.86 29.53
0 1 3 284.22 27.57
-1 0 3 1776.34 29.73
1 0 -3 1686.06 29.9
0 1 -3 1702.05 30.15
0 -1 -3 1782.82 30.77
-1 0 -3 1681.26 30.34
1 0 3 1624.82 28.87
0 1 3 1569.91 29.6
-1 0 -3 1585.3 28.67
0 1 -4 117.98 8.28
0 -1 4 -0.91 4.41
0 1 4 92.35 6.05
0 -1 -4 95.31 7.08
0 1 -4 91.56 6.27
1 0 4 -1.24 2.41
0 -1 4 97.17 5.96
-1 0 -4 97.91 7.42
-1 0 -4 116.81 8.62
1 0 -4 128.5 8.35
-1 0 4 154.18 7.64
0 -1 -4 136.4 9.18
-1 0 4 101.2 5.53
1 0 -4 99.68 5.93
0 -1 -4 94.15 6.78
-1 0 -4 91.47 5.87
0 1 4 81.7 7.87
0 -1 5 0.19 5.03
0 -1 -5 21.54 8
1 0 -5 10.09 6.07
0 1 5 -20.21 7.42
0 1 -5 3.31 6.3
1 0 5 -0.16 4.24
-1 0 -5 12.31 7.75
-1 0 5 10.55 5.59
0 1 -5 8.23 8.86
-1 0 5 6.06 7.31
-1 0 -5 -15.95 10.13
1 0 -5 10.17 8.59
0 -1 -5 34.8 9.99
-1 0 -5 1.04 6.46
0 -1 -5 -8.79 7.78
0 -1 5 12.21 6.06
0 -1 6 6.92 5.62
0 1 6 23.2 6.75
-1 0 -6 33.81 8.07
1 0 -6 17.59 6.59
0 -1 -6 27.5 8.05
0 1 -6 15.13 6.8
-1 0 6 19.44 5.92
1 0 6 22.34 6.48
0 -1 -6 11.7 10.04
1 0 -6 15.8 9.85
0 -1 -6 26.27 7.5
-1 0 -6 23.34 6.54
0 -1 6 28.65 6.32
0 1 -6 5.23 9.17
-1 0 6 15.39 7.84
-1 0 -6 19.86 9.69
0 -1 7 32.18 8.5
-1 0 -7 165.75 13.06
0 1 -7 152.35 12.72
0 1 7 105.41 10.2
0 -1 -7 178.67 13.13
-1 0 7 160.86 11.32
1 0 -7 159.08 12.37
0 -1 7 173.6 9.77
1 0 7 157.8 9.73
-1 0 7 182.73 9.4
0 -1 -7 174.13 10.21
-1 0 -7 189.22 9.68
1 0 -7 176.18 9.96
0 1 -7 178.5 10.15
0 1 7 182.18 9.86
0 -1 -7 183.16 11.05
-1 0 -7 175.29 11.18
0 -1 8 77.52 10.86
1 0 8 239.2 12.16
-1 0 8 249.07 11.43
0 -1 8 228.06 11.82
0 1 -8 276.65 15.24
-1 0 -8 268.87 15.4
-1 0 8 251.02 13.58
0 -1 -8 232.35 14.98
1 0 -8 253.61 14.77
0 1 -8 278.37 13.02
0 -1 -8 234.67 12.88
-1 0 -8 223.03 13.12
0 1 8 265.93 12.34
1 0 -8 233.71 12.12
0 1 8 132.72 12.1
-1 0 -8 231.39 11.64
0 -1 -8 233.63 12.12
-1 0 -9 589.09 23.49
0 -1 -9 619.88 23.28
0 1 9 634.62 22.66
0 1 -9 625.96 23.32
1 0 -9 590.96 22.73
0 -1 9 242.84 21.3
0 -1 -9 549 25.13
-1 0 9 625.56 23.89
1 0 -9 588.72 25.09
0 1 -9 623.13 25.16
1 0 9 613.83 24.22
0 1 9 292.72 21.88
-1 0 -9 571.44 25.23
0 -1 9 601.57 22.34
-1 0 9 577.15 21.91
1 0 9 620.9 22.73
0 -1 -9 585.22 22.35
-1 0 -9 570.7 21.97
1 0 10 45.33 10.62
0 -1 10 28.2 8.21
1 0 -10 39.72 8.94
0 1 -10 50.41 9.62
0 -1 -10 43.59 9.46
-1 0 -10 51.67 10.17
-1 0 10 47.83 7.89
0 1 10 50.5 8.26
1 0 10 44.13 8.51
0 -1 -10 29.85 12.28
1 0 -10 49.42 11.93
0 -1 -10 47.68 8.11
-1 0 -10 54.14 7.85
0 -1 10 50.44 7.95
-1 0 10 44.86 10.06
-1 0 -10 41.99 12.66
0 1 10 11.95 7.71
0 1 -10 41.74 12.45
-1 0 -11 1332.6 49.57
0 -1 -11 1378.15 49.97
0 -1 -11 1257.27 52.48
-1 0 -11 1354.54 52.77
0 1 -11 1346.01 52.47
1 0 -11 1308.81 52.33
0 1 -11 1331.01 50.48
0 -1 -11 1377.3 50.83
1 0 -11 1346.68 50.35
-1 0 -11 1372.63 51.09
0 1 11 1384.9 50.01
-1 0 11 1399.42 49.75
1 0 11 1382.75 50.26
0 -1 11 1422.22 50.01
0 -1 -12 6.24 10.06
1 0 -12 4.91 9.48
0 1 -12 4.84 9.31
-1 0 -12 -6.14 10.23
-1 0 12 15.72 7.75
0 -1 12 2.23 7.7
-1 0 -12 4.33 13.09
0 1 -12 -1.57 12.46
-1 0 -12 11.48 7.3
0 -1 -12 13 13.8
1 0 -12 6.21 13.01
-1 0 -13 35.05 14.69
0 1 -13 61.17 14.3
0 -1 -13 43.67 14.26
1 0 -13 40.24 14.03
-1 0 13 34.85 8.36
0 -1 -13 59.55 11.08
-1 0 -13 26.32 11.01
0 1 -13 31.97 10.43
1 0 -13 25.2 10.06
0 1 -14 422.56 23.51
1 0 -14 379.65 23.06
0 -1 -14 383.42 23.51
-1 0 -14 413.84 23.79
0 -1 -14 377 20.24
-1 0 -14 367.47 20.76
0 1 -14 405.88 20.09
1 0 -14 389.25 19.71
0 -1 -15 -8.97 15.48
-1 0 -15 18 14.74
1 0 -15 26.02 14.5
0 1 -15 3.38 14.99
-1 0 -15 27.05 11.8
1 0 -15 8.44 10.39
0 1 -15 20.32 10.72
0 -1 -15 14.66 11.19
1 0 -16 78.35 17.45
-1 0 -16 63.75 17.2
0 -1 -16 83.77 17.49
0 1 -16 90.05 17.16
-1 0 -16 94.97 13.78
1 0 -16 72.51 11.97
0 -1 -16 97.49 13.4
0 1 -16 109.1 13.41
1 0 -17 -2.31 16.57
0 1 -17 16.28 16.3
0 -1 -17 -11.95 17.16
-1 0 -17 19.82 16.58
1 0 -17 -18.33 11.14
-1 0 -17 12.26 12.87
0 1 -17 -3.28 12.19
0 -1 -17 14.91 12.06
0 1 -18 42.12 18.25
1 0 -18 32.99 18.46
0 -1 -18 35.73 18.16
-1 0 -18 23.68 18.27
0 1 -18 31.11 12.95
-1 0 -18 22.72 13.38
0 -1 -18 28.68 13.32
0 -1 -19 41.51 19.2
1 0 -19 7.05 18.72
-1 0 -19 39.58 18.82
0 1 -19 29.89 18.73
-1 0 -19 26.5 14.02
0 -1 -19 49.07 13.78
-1 0 -20 21.72 14.77
0 1 -20 16.8 19.02
-1 0 -20 36.2 19.62
0 -1 -20 -19.08 19.58
1 0 -20 42.93 20.48
0 -1 -21 47.19 20.96
-1 0 -21 1 20.66
1 0 -21 32.53 21.5
0 1 -21 0.99 20.42
0 -1 -22 50.56 22.01
-1 0 -22 40.29 21.01
1 0 -22 -4.14 21.12
0 1 -22 3.11 20.89
0 1 -23 41.64 23.23
-1 0 -23 25.75 22.7
0 -1 -23 -19.8 21.68
1 0 -23 -23.84 22.07
-1 0 -24 36.1 23.94
1 0 -24 6.78 23.58
0 -1 -24 43.47 23.34
0 1 -24 31.09 23.8
0 1 -25 11.98 24.67
-1 0 -25 -1.22 24.56
0 -1 -25 20.2 23.99
1 0 -25 15.24 23.96
0 -1 -26 22.11 24.75
1 0 -26 48.49 26.07
-1 0 -26 69.19 26.13
0 1 -26 11.18 25.06
-1 0 -27 47.97 27.54
0 1 -27 52.53 27.38
-1 0 -28 66.43 28.65
0 1 -28 5.26 27.54
0 1 -29 18.85 29.33
1 -1 0 278.55 10.88
1 -1 0 279.79 10.65
-1 -1 -1 2007.16 12.03
-1 1 1 1912.75 11.47
1 -1 -1 2109.03 11.55
-1 -1 -1 1641.89 10.68
1 1 1 1163.35 9.59
-1 1 -2 262.36 8.45
1 -1 -2 271.28 8.18
-1 -1 -2 264.68 8.53
1 1 -2 304.33 8.11
-1 -1 -2 311.73 8.92
1 1 2 318.33 8.87
-1 1 -3 214.94 7.01
1 1 -3 203.94 4.95
1 1 3 213.07 6.56
-1 1 -3 249.25 8.32
-1 -1 3 209.53 4.6
-1 -1 -3 215.71 7.17
-1 1 3 208.42 5.62
1 1 3 244.92 7.86
-1 1 3 1.9 3.03
-1 -1 -3 259.29 8.09
-1 -1 3 254.83 6.53
1 1 -3 226 6.87
-1 1 4 2.03 3.81
1 -1 -4 41.97 8.49
-1 -1 4 35.6 6.81
-1 1 -4 28.88 7.94
-1 -1 -4 10.91 7.36
-1 1 4 14.45 5.27
1 1 4 -0.89 1.72
1 1 4 26.89 7.23
-1 -1 -4 18.88 6.04
-1 -1 -4 29.87 8.68
1 1 -4 25.71 7.17
-1 1 -4 10.47 6.48
1 1 -4 5.97 4.47
1 -1 -4 12.22 6.16
-1 -1 4 9.5 4.35
1 -1 4 3.28 3.25
-1 -1 5 142.24 8.71
-1 1 -5 123.26 10.49
-1 -1 5 136.63 6.57
1 -1 5 102.99 6.91
1 1 -5 107.3 6.35
1 1 5 -0.18 3.41
-1 -1 -5 132.06 10.55
-1 1 -5 141.83 8.92
-1 -1 -5 171.89 8.74
1 1 5 99.49 9.41
1 1 -5 116.89 9.79
1 -1 -5 119.25 8.42
-1 1 5 132 7.56
1 -1 -5 136.69 11.18
-1 1 5 4.45 5.25
-1 -1 -5 177.57 12.48
1 -1 -6 29.29 10.32
-1 -1 6 26.34 8.26
1 -1 6 18.97 7.29
-1 1 6 12.84 6.39
-1 -1 -6 23.65 8.42
1 -1 -6 20.94 7.56
-1 -1 -6 19.97 6.8
1 1 6 20.75 8.46
1 1 -6 30.67 9.3
-1 -1 -6 32.3 10.42
-1 1 6 -2.37 5.37
-1 1 -6 23.65 9.89
1 1 6 13.31 5.35
-1 1 -6 22.07 7.96
1 1 -6 17.58 6.07
1 -1 -6 18.5 7.11
1 -1 6 15.7 6.56
-1 -1 6 24.4 6.07
1 -1 -7 31.71 10.8
-1 -1 7 26.78 8.75
1 -1 7 18.12 7.19
-1 -1 -7 18.46 8.41
-1 1 7 18.47 6.77
1 -1 -7 19.52 7.62
-1 -1 -7 25.52 6.97
-1 1 -7 24.01 10.49
-1 -1 -7 22.62 10.73
1 1 -7 20.07 9.76
-1 1 7 7.27 5.98
1 1 -7 33.67 6.99
1 1 7 14.62 6.8
-1 1 -7 21.56 8.14
1 -1 -7 22.53 7.39
1 -1 7 20.96 7.04
-1 -1 7 16.39 6.11
1 -1 -8 73.2 11.86
1 -1 8 23.95 7.54
-1 -1 8 88.98 10.04
-1 -1 -8 55.14 9.96
-1 1 8 77.53 7.91
1 -1 -8 61.07 8.25
-1 -1 -8 59.88 7.89
-1 1 -8 65.36 11.55
-1 1 8 14.86 6.84
-1 -1 -8 56.8 11.67
1 1 -8 79.44 11.38
-1 1 -8 73.18 9.43
1 1 8 81.59 8.35
1 1 -8 92.25 7.98
1 -1 -8 57.76 8.35
1 -1 8 76.5 8.28
-1 -1 8 71.03 7.53
1 1 -9 311.21 16.65
-1 1 -9 325.33 17.39
-1 -1 9 304.07 15.3
1 -1 -9 301.97 16.81
-1 -1 -9 307.64 17.56
1 -1 9 318.46 14.07
-1 -1 9 309.79 13.21
-1 -1 -9 302.47 13.5
1 -1 9 97.73 12.47
-1 1 9 64.87 11.86
-1 1 -9 313.93 15.36
1 -1 -9 303.13 13.99
1 1 9 306.7 13.98
1 1 -9 318.32 13.92
-1 -1 -9 327.71 15.58
-1 1 9 306.19 13.52
1 -1 -9 308 14.14
-1 -1 -10 268.42 17.49
-1 -1 10 296.37 14.87
-1 1 -10 288.62 17.09
1 1 -10 265.47 16.52
1 -1 -10 278.03 17.13
1 1 10 237.46 13.03
1 -1 10 267.65 13.16
-1 -1 10 264.36 12.53
-1 -1 -10 258.51 12.75
-1 -1 -10 279.83 14.98
1 1 -10 273.42 13.44
1 -1 -10 265.04 13.82
-1 1 -10 266.18 14.78
-1 1 10 268.24 12.87
-1 1 -10 250.88 12.3
1 -1 -10 256.71 13.31
-1 1 10 98.41 11.89
-1 -1 -11 547.92 22.79
-1 -1 -11 552.75 24.61
1 1 -11 560.38 23.37
-1 1 -11 537.46 24.17
-1 1 11 561.96 22.85
1 -1 -11 525 23.52
-1 1 -11 551.5 22.55
1 -1 11 556.98 23.12
-1 -1 11 561.45 22.6
1 1 11 563.24 23.29
-1 -1 -11 562.99 26.91
-1 1 -11 528.91 26.4
1 -1 -11 567.04 26.68
1 1 -11 533.7 26.07
1 -1 -12 1922.39 70.16
-1 -1 -12 1908.26 70.87
-1 1 -12 1950.01 70.73
1 1 -12 1921.76 69.86
-1 1 -12 1935.3 69.17
1 -1 -12 1837.94 72.22
1 1 -12 1897.54 72.1
-1 1 -12 1949.48 72.61
-1 -1 -12 1915.12 72.54
-1 -1 12 2059.23 69.48
-1 1 12 1923.48 69.44
1 -1 -13 1353.16 54.6
-1 -1 -13 1395.96 54.84
-1 1 -13 1384.32 54.71
1 1 -13 1326.3 54.23
-1 -1 -13 1350.38 52.7
1 1 -13 1423.55 51.79
1 -1 -13 1402.58 52.04
-1 1 -13 1412.54 52.61
1 1 -14 209.47 18.66
-1 -1 -14 206.47 19.13
1 -1 -14 218.34 18.85
-1 -1 -14 231.59 16.18
1 1 -14 232.95 14.76
1 -1 -14 224.77 14.98
-1 1 -14 207.44 18.39
-1 1 -14 167.27 14.92
-1 -1 -15 67.95 16.37
1 -1 -15 88.05 16.95
1 1 -15 85.51 15.94
1 -1 -15 42.36 11.41
-1 1 -15 83.01 16.1
1 1 -15 77.13 11.6
-1 1 -15 73.22 12.44
-1 -1 -15 57.84 12.76
1 -1 -16 -8.1 15.74
1 1 -16 19.85 15.55
-1 -1 -16 13.53 16.27
1 -1 -16 -9.31 10.66
-1 1 -16 -17.07 16.33
-1 -1 -16 20.53 12.13
1 1 -16 46.08 11.48
-1 1 -16 10.8 11.71
1 -1 -17 101.65 18.73
-1 -1 -17 125.36 19.04
1 1 -17 118.63 18.29
-1 1 -17 106.57 18.43
-1 -1 -17 107.75 14.35
1 1 -17 153.82 12.86
-1 1 -17 92.25 14.47
-1 1 -18 39.62 14.53
-1 -1 -18 21.74 13.5
-1 1 -18 23.64 17.84
-1 -1 -18 18.81 18.28
1 1 -18 43.98 18.03
1 -1 -18 36.89 17.8
-1 -1 -19 22.82 14.03
-1 1 -19 0.65 14.05
-1 -1 -19 16.39 18.86
1 -1 -19 19.54 18.75
-1 1 -19 6.26 18.51
1 1 -19 43.3 18.6
-1 -1 -20 39.06 15.06
1 1 -20 45.03 19.92
-1 1 -20 8.52 19.08
-1 -1 -20 30.01 19.96
1 -1 -20 58.2 19.91
-1 1 -20 60.47 15.6
1 1 -21 37.04 20.9
1 -1 -21 54.24 21.15
-1 -1 -21 52.99 21.61
-1 1 -21 77.09 21.81
-1 1 -22 -7.37 21.13
1 -1 -22 37.19 21.39
1 1 -22 24.78 21.77
-1 -1 -22 23.57 21.28
1 1 -23 35.65 23.17
-1 1 -23 55.24 22.86
-1 -1 -23 23.51 22.67
1 -1 -23 24.83 22.59
-1 -1 -24 11.67 23.66
1 -1 -24 73.18 23.98
1 1 -24 37.38 23.69
-1 1 -24 69.6 24.37
-1 -1 -25 7.24 24.33
-1 1 -25 8.51 24.4
1 1 -25 55.37 26.18
-1 1 -26 26.42 25.41
1 1 -26 -13.41 25.6
-1 -1 -26 26.22 25
1 1 -27 25.14 26.37
-1 1 -27 10.42 26.83
-1 -1 -27 6.44 25.76
-1 1 -28 32.17 28.33
1 1 -28 55.51 28.48
-2 0 0 2550.67 89.53
2 0 0 2616.31 89.52
0 -2 0 2749.53 90.14
0 -2 0 2582.41 90.03
0 -2 -1 1756.17 61.72
0 2 -1 1816.74 61.57
-2 0 -1 1717.29 61.38
2 0 1 1690.23 61.3
0 -2 1 1772.94 61.62
0 2 -1 1947.73 61.74
-2 0 -2 514.01 18.36
0 2 -2 503.9 18.28
0 -2 2 518.19 18.45
0 -2 -2 463.42 18.58
2 0 2 445.42 17.97
-2 0 -2 457.27 18.15
0 2 -3 313.32 8.29
-2 0 -3 298.3 8.55
0 2 3 315.14 8.78
-2 0 -3 331.82 9.23
-2 0 3 312.35 7.63
2 0 3 328.71 8.78
2 0 -4 8464.09 222.76
0 2 -4 8438.72 222.48
0 2 4 8489.04 222.96
2 0 4 8531.46 221.92
-2 0 -4 8745.44 223.39
-2 0 4 8549.68 222.59
-2 0 -4 8631.1 223.1
2 0 -4 8239.9 221.52
-2 0 4 8391.8 221.49
2 0 4 8650.83 223.06
0 2 -4 8513.15 223.09
0 2 -5 1679.06 60.4
0 2 5 1668.7 60.35
2 0 5 1710.9 59.31
0 2 -5 1700.06 59.62
0 -2 -5 1844.8 60.17
-2 0 -5 1773.96 59.15
-2 0 5 1645.91 59.83
2 0 -5 1691.16 60.22
-2 0 -5 1698.38 60.74
2 0 5 1665.48 60.32
0 -2 5 1706.07 59.46
0 -2 -5 1625.29 60.26
-2 0 -5 1646.02 60.32
-2 0 5 1674.66 58.82
0 2 5 1661.72 59.73
2 0 -5 1669.95 58.8
0 -2 -5 1655.71 61.06
0 2 6 1168.77 19.07
0 2 -6 1155.73 17.07
0 -2 -6 1182.12 17.58
-2 0 -6 1170.45 15.51
2 0 6 1206.09 19.46
-2 0 -6 1201.84 20.63
2 0 -6 1200.94 19.21
-2 0 6 1255.51 18.48
0 2 -6 1192.09 19.97
0 -2 6 1134.8 16.27
0 -2 -6 1162.41 20.89
-2 0 -6 1189.44 19.26
0 -2 -6 1207.02 18.4
0 2 6 1168.58 17.35
-2 0 6 1145.48 14.78
2 0 -6 1135.66 14.98
0 -2 7 157.84 8.56
-2 0 -7 158.4 10.8
2 0 7 -0.24 3.68
0 -2 7 162.98 10
0 2 -7 156.06 9.36
-2 0 -7 168.01 8.12
0 -2 -7 147.18 9.16
-2 0 7 146.68 10.36
0 2 -7 168.29 11.64
-2 0 -7 180.93 12.39
0 -2 -7 169.92 12.69
2 0 -7 174.02 11.55
0 -2 -7 157.64 10.19
-2 0 7 153.83 7.49
0 2 7 166.46 9.23
2 0 -7 169.04 7.97
0 2 7 179.16 11.5
2 0 8 10.68 5.44
-2 0 8 17.54 6.19
0 2 -8 7.19 8.02
0 -2 8 29.74 8.82
0 2 8 5.73 7.47
2 0 -8 16.44 7.12
-2 0 -8 5.59 9.01
-2 0 -8 18.57 6.7
0 -2 -8 9.78 7.47
0 2 -8 25.95 10.76
-2 0 -8 19.62 11.13
-2 0 8 21.61 9.28
2 0 -8 22.39 10.29
0 -2 -8 26.11 11.69
0 -2 -8 13.36 8.57
0 -2 8 13.54 7.1
0 2 -9 978.21 37.16
2 0 9 939.55 36.94
-2 0 9 972.16 36.04
0 -2 -9 1003.62 37.07
-2 0 -9 1028.24 36.34
0 -2 9 1005.43 37.81
-2 0 -9 952.23 39.22
0 2 -9 988.79 38.98
0 2 9 981.24 38.35
-2 0 9 972.41 37.85
2 0 -9 931.35 38.6
0 -2 -9 960.59 39.36
-2 0 -9 1036.88 38.2
2 0 -9 959.33 36.38
0 -2 -9 943.45 37.55
0 2 9 1018.16 37.04
0 -2 9 1017.26 36.71
0 2 -10 19.86 8.75
-2 0 10 20.74 6.93
2 0 10 11.1 7.71
0 -2 10 39.78 9.61
0 2 10 19.17 7.93
2 0 -10 22.51 8.26
-2 0 -10 11.62 10.3
-2 0 -10 26.6 7.06
0 -2 -10 -1.77 7.33
0 -2 10 16.93 7.62
2 0 -10 34.5 11.94
0 -2 -10 24.4 12.88
0 -2 -10 24.14 9.87
-2 0 10 35.06 10.37
0 2 -10 32.7 12.41
-2 0 -10 21.74 12.66
-2 0 -11 14.27 12.81
0 2 -11 5.77 12.31
2 0 -11 12.22 7.94
-2 0 -11 7.73 10.81
-2 0 -11 19.42 7.09
0 -2 11 1.48 7.51
2 0 -11 17.11 12.33
0 -2 -11 21.15 13.37
0 -2 -11 10.14 9.95
0 2 11 18.85 8.1
0 2 -11 -1.39 9.18
-2 0 11 7.88 6.98
-2 0 -12 90.29 14.76
0 2 -12 45.88 13.54
-2 0 -12 69.27 11.69
2 0 -12 75.18 9.47
-2 0 -12 67.32 8.19
0 -2 12 80.87 9.06
0 2 -12 69.13 10.8
0 -2 -12 77.7 11.34
0 -2 -12 61.99 14.96
2 0 -12 65.79 13.63
0 2 -13 70.83 14.52
-2 0 -13 80.42 15.35
0 -2 -13 74.19 11.58
0 -2 -13 61.65 15.26
2 0 -13 61.99 14.62
2 0 -13 31.98 8.9
-2 0 -13 69.49 12.61
0 2 -13 86.35 11.32
0 2 -14 87.4 15.6
-2 0 -14 114.23 16.4
0 -2 -14 85.23 12.58
2 0 -14 70.57 15.65
0 -2 -14 72.54 16.03
-2 0 -14 76.29 12.83
2 0 -14 38.34 8.48
0 2 -14 74.32 11.34
-2 0 -15 14.19 15.74
0 2 -15 21.54 15.41
0 -2 -15 19.9 11.54
2 0 -15 7.28 15.1
0 -2 -15 22.75 16.1
-2 0 -15 22.07 12.64
0 2 -15 26.87 11.35
0 2 -16 46.86 16.54
-2 0 -16 76.13 17.44
0 -2 -16 74.04 12.94
0 -2 -16 81.37 17.25
2 0 -16 77.16 17.19
0 2 -16 65.82 12.79
-2 0 -16 64.99 14.02
0 2 -17 52.88 17.31
0 -2 -17 43.36 13.47
0 -2 -17 42.13 16.72
2 0 -17 46.68 17.55
-2 0 -17 34.02 16.96
-2 0 -17 42.88 13.71
0 2 -17 59.38 12.74
0 2 -18 12.47 17.61
0 -2 -18 14.67 13.15
-2 0 -18 8.59 17.66
2 0 -18 -15.48 17.42
0 -2 -18 -8.6 17.8
-2 0 -18 3.93 13.95
0 2 -18 18.29 12.66
0 -2 -19 49.72 13.75
-2 0 -19 33.76 19.12
0 2 -19 74.82 20.21
2 0 -19 26.05 19.21
0 -2 -19 28.17 18.88
-2 0 -19 18.5 14.75
2 0 -20 32.13 19.79
0 -2 -20 24.85 19.28
0 2 -20 16.73 19.28
-2 0 -20 20.3 19.7
-2 0 -20 41.49 15.71
0 -2 -21 48.22 21.17
-2 0 -21 12.23 20.89
0 2 -21 58.93 21.5
2 0 -21 50.3 20.68
-2 0 -21 43.39 16.36
2 0 -22 -6.1 21.46
-2 0 -22 55.71 22.03
0 -2 -22 15.77 20.69
0 2 -22 -4.15 21.2
2 0 -23 47.78 22.69
-2 0 -23 46.06 23.41
0 2 -23 25.01 22.68
0 -2 -23 45.07 21.94
0 2 -24 10.24 23.14
2 0 -24 9.97 22.85
-2 0 -24 26.02 24.06
-2 0 -25 45.56 24.48
0 2 -25 23.89 24.99
-2 0 -26 -2.55 25.28
0 2 -26 -26.12 25.98
-2 0 -27 23.7 26.26
0 2 -27 30.93 27.94
0 2 -28 10.59 27.61
-2 0 -28 32.44 27.86
0 2 -29 55.52 29.43
-2 -1 -28 45.57 27.58
-1 2 -28 26.94 28.65
2 1 -27 45.61 27.12
-2 -1 -27 41.83 26.25
-1 2 -27 36.65 27.35
-1 2 -26 51.49 26.65
2 1 -26 54.98 26.56
-2 -1 -26 100.3 26.59
-2 -1 -25 -9.84 24.09
2 1 -25 -1.16 23.97
-1 2 -25 14.45 24.05
2 1 -24 -12.23 23.18
-2 -1 -24 -1.19 23.81
-1 2 -24 -3.46 22.95
-1 2 -23 58.56 24.02
2 1 -23 76.67 23.79
-2 -1 -23 31.72 22.45
-2 -1 -22 45.63 16.83
-1 2 -22 69.36 22.26
-2 -1 -22 60.9 22.24
2 1 -22 52.85 22.2
-2 -1 -21 9.03 16.03
-2 -1 -21 -14.43 20.58
2 1 -21 26.97 20.92
-1 2 -21 3 19.9
1 -2 -21 25.67 20.22
-1 2 -20 -1.9 19.37
2 1 -20 20.1 19.66
1 -2 -20 53.56 20.81
-2 -1 -20 -17.52 19.49
-2 -1 -20 -3.62 14.83
-1 2 -19 81.05 19.91
1 -2 -19 110.62 20.16
-2 -1 -19 87.46 20.27
2 1 -19 68.53 19.72
-1 2 -19 96.32 15.68
-2 -1 -19 93.19 16.1
-1 2 -18 203.7 21.73
-2 -1 -18 163.95 21.29
2 1 -18 172.28 21.2
1 -2 -18 173.74 21.14
-1 2 -18 174.95 17.28
-2 -1 -18 200.32 17.89
-1 2 -17 14.24 17.14
1 -2 -17 25.44 17.52
-2 -1 -17 -8.16 17.45
2 1 -17 -16.5 16.55
-1 2 -17 18.86 12.7
-2 -1 -17 8.09 13.59
-1 2 -16 79.51 17.86
1 -2 -16 48 10.82
-2 -1 -16 72.46 17.45
1 -2 -16 57.48 16.58
2 1 -16 71.89 17.25
-1 2 -16 76.54 13.2
-2 -1 -16 69.05 13.94
-1 2 -15 286.64 19.98
1 -2 -15 251.75 15.55
-2 -1 -15 269.66 16.93
-1 2 -15 241.54 16.09
-2 -1 -15 253.91 20.13
1 -2 -15 263.56 20.2
2 1 -15 269.79 19.24
1 -2 -14 900.5 40.8
-2 -1 -14 971.82 40.98
2 1 -14 884.88 39.69
-1 2 -14 936.79 40.55
1 -2 -14 893.7 37.57
2 1 -14 1005.58 36.62
-1 2 -14 976.51 38.36
-2 -1 -14 913.89 38.71
-1 2 -13 89.42 11.97
-2 -1 -13 82.73 15.52
2 1 -13 100.43 14.8
1 -2 -13 66.16 15.29
1 -2 -13 79.04 11.29
-2 -1 -13 71.73 12.54
2 1 -13 88.4 9.62
-1 2 -13 85.72 15.62
-1 2 -12 130.27 15.35
-2 -1 -12 113.14 15.62
-2 -1 -12 168.04 14.24
-1 -2 12 107.52 9.81
1 -2 -12 119.13 15.78
2 1 -12 147.11 15.06
2 1 -12 148.55 10.94
1 -2 -12 133.25 12.18
-1 2 -12 133.85 12.44
-2 1 12 136.59 10.03
-2 -1 -11 131.78 15.22
-1 2 -11 107.09 14.67
-1 -2 11 131.71 9.82
-2 -1 -11 151.47 13.15
-2 -1 -11 113.33 9.57
1 -2 -11 106.07 14.84
2 1 -11 118.48 13.93
-2 1 11 129.28 9.71
-1 2 -11 127.98 12.03
2 1 -11 160.98 10.4
1 -2 -11 112.84 11.63
-1 -2 10 1382.3 51.29
1 -2 -10 1406.72 50.7
2 -1 10 1437.51 50.8
-1 2 -10 1338.36 51.12
-2 -1 -10 1370.65 50.12
-1 2 -10 1395.53 52.76
-2 -1 -10 1370.15 53.01
-2 1 10 1356.39 51.52
2 1 -10 1373.87 52.22
-1 -2 10 1436.86 50.03
1 -2 -10 1269.45 52.66
2 1 -10 1382.15 49.91
-2 -1 -10 1386.53 51.8
-2 1 10 1347.27 49.88
1 2 10 1420.05 50.8
1 -2 -10 1343.02 50.97
-1 2 -9 114.14 10.82
-1 -2 9 116.05 10.97
-2 1 9 112.58 8.85
2 1 -9 105.06 8.85
1 2 9 109.49 9.73
-2 -1 -9 104.34 11.36
-2 -1 -9 117.14 9.17
1 -2 -9 103.66 9.53
-2 -1 -9 118.92 13.73
2 1 -9 110.26 12.37
-2 1 9 112.35 11.47
-1 2 -9 119.58 13.56
1 -2 -9 120.88 13.79
1 -2 -9 102.32 10.7
2 -1 9 113.55 9.74
-1 -2 9 124.33 9.02
-1 2 -8 29.59 9.07
-1 -2 8 23.3 9.32
1 2 8 30.08 7.64
-2 -1 -8 36.22 9.75
-2 1 8 35.44 6.95
2 1 -8 30.3 6.72
-2 -1 -8 34.5 7.43
1 2 8 30.27 10.25
1 -2 -8 44.55 8.21
-2 -1 -8 32.75 11.51
-1 2 -8 35.32 11.4
-2 1 8 39.33 9.67
2 1 -8 31.5 10.41
1 -2 -8 35.92 11.28
1 -2 -8 35.24 8.88
2 -1 8 38.32 7.07
-1 -2 8 30.51 6.94
-1 -2 7 68.44 9.08
-1 2 -7 75.32 11.19
-2 -1 -7 42.21 9.33
1 2 7 20.84 6.17
-2 1 7 52.33 6.8
2 1 -7 30.46 6.03
1 -2 -7 58.56 8.18
1 2 7 45.4 9.42
-1 -2 7 45.23 6.69
2 -1 7 2.67 4.55
-2 -1 -7 54.98 11.16
2 1 -7 67.5 10.01
-2 1 7 57.31 9.55
1 -2 -7 68.87 8.71
-1 2 -7 63.1 9.09
1 2 6 543.37 13.86
-2 1 6 525.24 12.96
-2 -1 -6 529.96 14.56
2 1 -6 571.85 13.13
-1 2 -6 488.35 12.25
1 2 6 483.88 12.16
-1 -2 6 560.34 12.24
-1 2 -6 503.73 14.01
-2 1 6 516.85 9.72
-2 -1 -6 550.17 13.27
2 1 -6 490.42 8.64
-1 -2 6 498.02 9.56
-1 2 -5 438.43 12.99
1 2 5 475.5 13.05
2 1 -5 466.09 11.08
-2 -1 -5 466.81 13.8
-2 1 5 451.43 11.97
-1 2 -5 431.34 10.92
-2 1 5 419.57 8.54
2 1 -5 386.95 7.25
-2 -1 -5 437.32 12.26
1 2 5 447.17 11.51
1 2 4 703.33 27.01
2 1 -4 668.38 24.6
-2 -1 -4 730.13 27.11
-2 1 4 688.7 25.25
-1 2 -4 704.82 26.28
-2 1 4 724.16 26.66
2 1 -4 716.44 25.95
-2 -1 -4 681.38 27.18
1 2 4 720.56 27.42
1 2 3 2358.56 81.28
2 1 -3 2333.58 80.41
-2 -1 -3 2333.24 81.19
1 -2 -3 2286.57 80.98
-2 -1 -3 2396.45 81.22
-1 2 -3 2263.09 80.98
-1 2 -3 2331.21 81.21
-1 -2 3 2336.55 80.61
-2 1 2 3405.14 17.41
1 -2 -2 3376.69 21
-1 -2 2 3394.01 18.72
1 2 2 3477.44 21.19
-2 -1 -2 3365.12 20.17
-2 -1 -2 3417.66 21.04
-2 -1 -1 630.8 23.16
-2 -1 -1 676.03 23.53
-2 1 1 628.31 23.17
-1 -2 1 673.5 23.49
1 -2 -1 663.82 23.91
-2 1 0 159.86 9.8
2 -1 0 309.55 10.85
1 -2 0 306.69 11.4
-1 -2 0 282.07 10.35
1 2 0 267.39 10.12
2 1 0 273.14 9.44
-2 -1 0 268.17 9.45
2 -1 0 282.62 10.48
-2 1 0 120.39 9.43
1 -2 0 268.61 10.84
2 1 1 614.62 10.87
2 1 1 599.06 11.29
-1 -2 -1 612.84 12.28
1 -2 1 588.69 12.52
2 -1 -1 623.7 11.28
1 2 -1 602.57 11.21
-2 1 -1 628.1 11.64
-1 2 1 604.32 11.48
1 2 -1 653.01 11.31
1 2 -2 3493.78 111.17
1 -2 2 3484.03 111.92
2 -1 -2 3487.42 111.07
2 1 2 3536.94 111.4
-2 1 -2 3520.94 111.65
-1 2 2 3568.75 111.57
2 1 2 3585.99 111.53
1 2 -3 2165.68 75.74
-2 1 -3 2203.3 76.37
2 -1 -3 2150.2 75.62
2 1 3 2217.87 76.27
-2 -1 3 2222.89 75.6
-1 -2 -3 2158.55 76.47
-1 2 3 2211.26 76.39
1 2 -4 699.54 22.08
-2 1 -4 655.69 23.01
1 2 -4 691.09 21.57
-2 -1 4 689.02 20.75
-2 1 -4 702.54 23.76
1 2 -4 697.21 22.68
-2 -1 4 736.61 22.14
-1 -2 -4 718.53 24.27
2 1 4 750.37 23.61
-1 2 4 693.59 24.12
-2 1 -4 709.87 20.94
-1 -2 -4 716.41 23.67
-1 2 4 723 22.81
1 2 -5 418.01 13.83
-2 1 -5 444.34 15.77
-2 -1 5 444.95 12.94
1 -2 5 450.29 14.58
-1 -2 -5 435.91 16.45
-1 2 5 434.99 14.9
-2 -1 5 465.78 14.98
2 1 5 476.23 16.45
-1 -2 -5 460.45 17.73
-2 1 -5 455.78 16.89
1 2 -5 451.31 15.43
-2 1 -5 430.41 13.16
2 1 5 435.54 14.76
-2 -1 6 566.46 13
1 2 -6 539.05 13.64
-2 1 -6 532.64 15.92
1 -2 6 560.54 14.64
-1 -2 -6 598.84 16.51
-1 2 6 545.5 14.49
-2 -1 6 593.49 15.54
2 1 6 592.27 16.66
-1 -2 -6 589.27 18.01
1 2 -6 610.34 16.39
-2 1 -6 622.25 17.88
2 1 6 584.83 14.92
-2 1 -6 557.49 13.11
-2 -1 7 65.26 6
1 -2 7 52.48 7.52
-1 2 7 64.77 7.38
-2 1 -7 66.13 9.46
2 1 7 0.74 1.83
1 2 -7 37.76 6.3
2 1 7 60.93 10.09
1 2 -7 77.25 9.92
-2 1 -7 71.41 11.02
-2 -1 7 71.27 9.14
-1 2 7 1.16 2.85
2 -1 -7 70.16 11.14
-1 -2 -7 49.68 11.09
-1 -2 -7 57.53 9.26
2 -1 -7 58.1 7.35
-2 1 -7 46.65 6.07
-1 -2 -7 53 7.74
2 1 7 47.46 8.42
1 -2 8 44.88 7.62
-2 -1 8 33.97 6.12
-1 -2 -8 35.73 9.23
-1 2 8 29.68 7.69
1 2 -8 25.46 7.01
-2 1 -8 34.01 9.56
2 1 8 3.26 3.37
-1 2 8 0.32 2.52
-2 1 -8 32.63 10.88
1 2 -8 34.3 10.72
-2 -1 8 23.85 9.1
2 1 8 33.91 9.98
2 -1 -8 39.05 11.06
-1 -2 -8 53.56 11.89
2 -1 -8 42.19 7.88
-2 1 -8 32.26 6.47
2 1 8 22.95 9.29
-1 -2 -8 32.87 7.91
-2 1 -9 122.12 7.68
-1 -2 -9 108.73 8.93
1 -2 9 -0.67 2.39
-1 2 9 103.29 8.59
-2 -1 9 118.88 7.63
-1 -2 -9 117.28 11.05
2 1 9 38.38 6.65
1 2 -9 124.57 9.09
-2 1 -9 121.78 11.13
-2 -1 9 115.4 10.61
-1 2 9 -0.7 2.42
1 2 -9 115.32 12.65
-2 1 -9 118.19 12.92
2 -1 -9 87.98 12.29
-1 -2 -9 118.64 13.2
2 -1 -9 113.09 8.76
1 -2 9 124.9 9.01
-2 -1 10 1463.06 18.69
2 1 10 1461.87 21.37
1 -2 10 1390.72 20.48
1 2 -10 1396.36 20.37
-1 -2 -10 1322.35 22.89
2 -1 -10 1363.15 20.26
-2 1 -10 1382.63 23.63
-1 2 10 1418.15 20.23
1 2 -10 1374.83 24.6
2 -1 -10 1315.06 25.4
-1 -2 -10 1365.87 26.44
-2 1 -10 1419.95 26.41
-2 -1 10 1456.22 22.7
-2 1 -10 1344.48 18.23
-1 -2 -10 1468.58 20.82
-2 1 -11 130.29 9.7
-2 -1 11 173.88 13.21
-2 -1 11 171.21 10.27
-1 -2 -11 154.79 13.4
-2 1 -11 170.63 13.27
1 -2 11 142.29 10.93
-1 -2 -11 163.34 16.13
2 -1 -11 161.39 15.39
-1 2 11 161.81 11.08
1 2 -11 188.43 11.92
2 -1 -11 140.04 11.21
-2 1 -11 157.81 15.67
1 2 -11 164.29 14.97
-2 1 -12 119.18 9.24
-2 1 -12 146.7 13.22
1 2 -12 145.74 11.33
-1 -2 -12 129.25 12.75
2 -1 -12 106.05 15.12
-1 -2 -12 111.58 15.39
2 -1 -12 128.19 10.69
-1 2 12 133.42 10.81
1 2 -12 129.33 14.85
-2 1 -12 133.31 15.58
2 -1 -13 79.21 15.27
-1 -2 -13 49.87 15.35
2 -1 -13 51.93 8.7
-1 -2 -13 52.82 11.84
1 2 -13 55.14 10.29
-2 1 -13 50.14 11.88
1 2 -13 71.9 14.35
-2 1 -13 76.11 14.74
1 2 -14 1033.81 26.88
2 -1 -14 924 26.86
-2 1 -14 984.36 27.44
-1 -2 -14 927.47 27.51
-1 -2 -14 980.46 23.62
1 2 -14 963.47 21.25
-2 1 -14 946.43 23.8
-1 -2 -15 254.32 19.52
2 -1 -15 228.23 18.3
-1 -2 -15 221.69 15.07
1 2 -15 288.3 13.81
-2 1 -15 248.98 15.77
-2 1 -15 258.55 19.07
1 2 -15 251.04 18.46
2 -1 -16 98.59 18.11
-1 -2 -16 39.42 16.66
-1 -2 -16 56.19 13.39
1 2 -16 116.52 11.85
-2 1 -16 78.66 13.57
-2 1 -16 47.55 16.55
1 2 -16 72.48 16.88
2 -1 -17 -1.55 16.89
-1 -2 -17 18.09 16.76
-1 -2 -17 -2.42 12.84
-2 1 -17 2.44 13.36
-2 1 -17 13.74 16.95
1 2 -17 -10.65 15.93
2 -1 -18 185.92 20.98
1 2 -18 174.73 20.69
-1 -2 -18 143.79 20.99
-1 -2 -18 138.55 16.46
-2 1 -18 175.84 17.43
-2 1 -18 193.49 22.14
-1 -2 -19 65.65 20.27
1 2 -19 100.8 19.93
2 -1 -19 88.73 19.49
-1 -2 -19 76.53 15.29
-2 1 -19 99.47 16.29
-2 1 -19 68.64 20.18
-2 1 -20 15.4 19.57
-1 -2 -20 2.92 19.48
1 2 -20 -27.43 19.5
2 -1 -20 15.63 19.71
-2 1 -20 -2.16 14.92
-1 -2 -20 8.53 14.6
1 2 -21 18.39 20.27
2 -1 -21 37.7 20.6
-2 1 -21 8.12 20.13
-1 -2 -21 13.32 21.07
-2 1 -21 6 15.56
-1 -2 -21 30.52 15.87
-1 -2 -22 57.84 22.12
1 2 -22 45.92 21.76
2 -1 -22 66.95 22.33
-2 1 -22 44.82 21.53
1 2 -23 20.39 22.78
-1 -2 -23 61.38 22.95
-2 1 -23 91.92 23.86
1 2 -24 22.65 23.52
-1 -2 -24 1.16 23.2
-2 1 -24 2.34 22.96
1 2 -25 35.32 25.4
-2 1 -25 1.22 24.41
-1 -2 -25 -25.28 24.04
-2 1 -26 75.44 27.22
1 2 -26 83.35 27.64
1 2 -27 40.5 27.77
-2 1 -27 34.28 26.69
1 2 -28 -3.9 28.09
-2 1 -28 34.03 28.31
2 -2 0 1094.98 12.68
2 -2 0 1126.07 8.99
2 -2 0 1052.37 13.95
-2 2 0 1152 9.25
-2 -2 1 27.01 4.94
2 2 -1 13.1 4.28
-2 2 1 30.19 5.6
2 -2 -1 29.25 6.85
2 2 1 20.79 5.18
2 2 1 39.02 5.33
2 -2 -1 7.88 4.37
-2 2 1 5.85 5.41
-2 2 -1 -0.14 1.17
2 -2 1 40.37 7.42
2 -2 -2 276.8 11.51
2 2 -2 263.05 10.86
-2 -2 2 278.26 10.86
2 -2 -2 260.06 12.55
-2 2 2 261.69 11.87
2 2 2 275.13 11.97
-2 -2 -2 277.19 12.36
2 2 2 261.67 12.01
-2 -2 -2 266.37 12.37
2 2 -3 458.68 13.58
-2 -2 3 508.24 13.82
2 -2 -3 495.42 16
-2 2 3 462.37 15.47
-2 -2 -3 471.88 16.16
2 2 3 495.37 15.76
-2 2 -3 489.16 15.56
-2 -2 -3 479.72 16.45
2 2 3 482.6 16.08
2 2 -3 485 14.13
2 2 4 147.3 10.78
2 2 -4 158.46 7.04
-2 -2 -4 169.14 10.97
2 -2 -4 150.16 11.08
-2 -2 -4 164.84 11.44
2 2 -4 148.45 7.92
2 2 -4 166.68 6.21
-2 2 -4 168.79 9.18
-2 2 -5 561.32 14.65
2 2 -5 547.31 10.2
2 2 -5 535.62 9.22
-2 2 -5 539.5 12.93
2 -2 -5 530.32 12.06
-2 -2 5 542.4 11.32
-2 -2 -5 554.28 14.53
2 2 5 570.59 13.98
2 2 -5 569.23 11.68
-2 2 5 547.3 10.86
-2 -2 -5 520.53 13.31
-2 -2 6 116.76 8.82
-2 2 -6 97.4 11.34
-2 -2 -6 127.29 10.05
2 2 -6 135.8 6.44
2 2 6 130.43 9.54
2 2 6 103.61 10.48
2 2 -6 97.03 9.07
-2 2 6 99.34 9.32
-2 -2 -6 114.63 11.23
-2 2 6 127.26 8.07
-2 2 -6 125.62 9.59
2 -2 6 2.47 3.69
2 2 -7 287.75 10.81
-2 2 -7 300.86 13.81
2 2 7 55.39 10.04
2 2 7 322.77 13.64
-2 -2 7 256.05 12.93
-2 2 7 261.48 13.55
2 2 7 269.85 14.53
2 2 -7 277.44 13.74
-2 2 -7 285.62 15.41
-2 -2 -7 264.92 15.38
-2 -2 -7 289.31 14.22
-2 2 7 284.3 11.85
2 -2 7 107.88 10.59
-2 -2 7 306.64 11.07
-2 -2 8 80.12 9.49
-2 2 -8 44.09 11.79
-2 -2 -8 80.53 10.31
2 2 8 0.86 1.89
-2 2 8 59.59 7.58
2 2 8 72.55 9.98
2 2 8 62.54 10.78
2 2 -8 68.56 10.55
-2 2 8 59.54 9.47
-2 -2 -8 70.97 12.26
2 2 -8 64.95 6.51
-2 2 -8 61.98 9.88
-2 -2 8 75.72 6.71
2 -2 8 80.44 7.97
-2 -2 9 19.13 9.28
-2 2 9 5.78 6.96
-2 -2 -9 5.84 9.73
2 -2 -9 4.79 7.8
2 2 9 14.99 9.83
-2 2 -9 17.99 12.02
2 2 -9 30.66 10.75
2 2 9 34.49 10.83
-2 2 9 35.2 9.89
-2 -2 -9 21.59 12.01
2 -2 9 5.3 7.45
-2 -2 9 6.97 6.42
2 2 9 4.08 3.98
2 2 -9 30.64 6.93
-2 2 -9 -2.05 9.28
-2 -2 10 143.64 12.22
-2 -2 -10 144.66 13.05
-2 2 10 133.11 10.02
2 2 10 174.6 13.49
-2 2 -10 145.41 14.65
2 2 -10 163.41 14.16
-2 2 10 145.09 12.56
-2 -2 -10 166.09 15.42
2 2 -10 170.9 10.43
-2 -2 10 141.81 9.64
-2 2 -10 147.1 12.59
2 -2 10 161.64 11.06
-2 2 -11 16.35 10.1
-2 -2 11 31.61 9.99
-2 -2 11 24.39 7.13
-2 2 -11 14.13 6.55
-2 -2 -11 8.43 12.84
-2 -2 -11 19.4 10.71
2 2 -11 36.45 8.08
-2 2 11 19.89 7.43
2 -2 -11 6.66 8.89
2 2 -11 39.15 12.26
-2 2 -11 40.72 13.15
2 -2 -12 324.95 20.63
-2 2 -12 320.18 15.02
-2 -2 -12 307.94 20.63
-2 2 -12 333.64 21.14
2 2 -12 342.19 19.8
-2 2 -12 336.53 18.47
-2 2 12 329.3 16
-2 -2 -12 327.84 18.62
2 2 -12 386.55 16.32
2 -2 -12 278.23 16.6
-2 -2 -13 63.4 12.21
2 2 -13 107.88 9.29
-2 2 -13 51.45 11.69
-2 -2 -13 71.18 14.99
2 -2 -13 52.38 14.96
2 -2 -13 18.98 9.54
2 2 -13 55.45 14.49
-2 2 -13 46.16 14.46
-2 2 -14 7.76 11.71
-2 -2 -14 11.18 11.9
-2 2 -14 19.26 15.23
2 2 -14 26.14 14.45
-2 -2 -14 11.45 14.73
2 -2 -14 15.28 14.55
-2 2 -15 7.67 12.14
-2 -2 -15 24.36 12.54
-2 2 -15 19.27 15.7
2 2 -15 25.69 14.47
2 -2 -15 35.52 15.19
-2 -2 -15 36.95 15.8
-2 -2 -16 68.93 14.55
-2 2 -16 119.01 14.35
-2 2 -16 110.61 17.87
-2 -2 -16 112.44 18.63
2 -2 -16 98.74 18.12
2 2 -16 118.85 17.66
-2 2 -17 15.2 13.58
-2 -2 -17 29.09 13.22
-2 2 -17 -4.88 17.51
2 2 -17 19.31 16.51
-2 -2 -17 19.91 17.33
-2 2 -18 65.55 14.28
-2 -2 -18 87.29 15.69
-2 2 -18 75.87 19.13
2 2 -18 55.64 18.13
-2 -2 -18 69.99 19.28
-2 2 -19 4.06 13.99
-2 -2 -19 19.7 14.81
-2 2 -19 49.33 19.42
2 2 -19 33.95 18.91
-2 -2 -19 4.7 18.89
-2 2 -20 45.09 15.44
-2 -2 -20 22.27 15.41
-2 2 -20 51.49 20.13
-2 -2 -20 44.41 19.94
2 2 -20 62.19 20.3
-2 2 -21 18.93 15.86
-2 2 -21 18.4 21.18
2 2 -21 6.68 20.63
-2 -2 -21 5.2 20.36
-2 -2 -21 15.57 16.14
-2 2 -22 48.08 21.69
-2 -2 -22 42.44 22.33
2 2 -22 31.34 21.72
-2 -2 -22 69.78 17.94
2 2 -23 -5.33 23.16
-2 2 -23 38.09 22.52
-2 -2 -23 46.56 22.83
-2 2 -24 34.01 23.26
-2 -2 -24 -1.18 23.04
2 2 -24 13.38 23.7
-2 -2 -25 -1.22 23.63
2 2 -25 16.23 24.58
-2 2 -25 13.43 24.63
-2 -2 -26 35.37 24.91
-2 2 -26 45.66 26.61
2 2 -26 57.73 26.45
-2 2 -27 -6.59 26.86
-2 2 -28 5.47 28.13
-3 0 0 -1.11 4.37
3 0 0 1.9 4.2
0 -3 0 -3.86 7
0 -3 0 -1.55 7.3
0 -3 1 2276.12 75.5
0 3 -1 2361.4 75.46
3 0 -1 2309.98 74.53
-3 0 1 2071.34 74.13
3 0 1 2059.69 74.67
-3 0 -1 2106.79 74.82
0 -3 -1 2105.05 75.4
0 -3 1 2167.55 75.35
0 3 -1 2104.55 75.16
-3 0 -2 3506.26 126.25
-3 0 -2 3741.09 126.4
3 0 2 3813.94 126.28
0 -3 -2 3637.26 126.74
0 -3 2 3647.37 126.57
0 3 -2 3625.91 126.39
-3 0 -3 9943.35 341.36
-3 0 -3 9999 341.37
3 0 3 9971.96 341.2
0 3 -3 9963.15 341.17
0 -3 3 9968.76 341.37
0 -3 -3 9962.96 341.5
0 3 -4 244.88 12.05
3 0 4 168.97 11.94
-3 0 -4 239.29 13.3
3 0 -4 209.74 9.44
-3 0 -4 284.28 14.03
-3 0 4 298.99 12
0 3 4 200.6 13.99
3 0 4 257.4 13.24
0 3 -5 361.6 14.44
3 0 5 364.48 12.9
0 3 5 373.53 15.5
0 3 -5 380.02 14.11
-3 0 5 354.88 14.34
-3 0 -5 383.67 16.18
-3 0 5 368.18 11.87
-3 0 -5 378.47 15.58
3 0 5 375.79 15.5
3 0 6 1595.45 58.92
0 3 -6 1641.82 59.26
0 3 -6 1661.94 58.42
3 0 6 1636.47 57.61
0 3 -6 1661.04 58.23
-3 0 6 1632.91 58.43
-3 0 -6 1594.93 59.49
3 0 -6 1620.9 58.68
-3 0 6 1633.82 56.97
-3 0 -6 1669.29 59.28
3 0 -6 1597.15 57.02
0 3 6 1697.86 58.46
0 3 6 1656.03 59.06
3 0 7 16.44 7.54
0 -3 -7 30.34 7.96
0 3 7 39.92 10.28
3 0 7 31.8 9.55
0 3 -7 22.35 10.4
0 3 7 24.29 7.58
3 0 7 40.72 8.13
-3 0 7 29.99 5.51
-3 0 -7 30.55 9.45
-3 0 7 26.11 9.08
-3 0 -7 33.98 10.97
3 0 -7 31.78 9.99
3 0 -7 24.41 5.91
0 3 -7 38.11 7.46
0 -3 -8 31.8 8.15
0 3 8 15.93 10.58
0 3 -8 38.32 11.47
3 0 8 49.41 10.24
0 3 8 35.21 8.17
-3 0 8 15.34 5.91
3 0 8 5.78 6.63
-3 0 -8 19.62 10.01
0 -3 8 20.92 7.26
0 3 -8 13.54 7.91
3 0 -8 59.38 10.88
0 -3 -8 25.28 9.76
3 0 -8 18.15 6.17
-3 0 -8 38.11 11.83
-3 0 8 47.93 9.78
3 0 9 217.53 12.87
-3 0 -9 221.56 14.71
-3 0 -9 186.38 12.63
-3 0 9 198.62 8.33
0 -3 9 195.01 9.69
3 0 9 -0.63 3.73
0 3 -9 163.08 10.58
0 3 9 230.73 13.96
0 3 -9 228.44 14.09
0 -3 -9 208.45 14.79
3 0 -9 203.84 13.69
-3 0 9 214.19 12.03
3 0 -9 172.32 8.41
0 3 9 207.49 10.68
0 -3 -9 200.85 12.26
-3 0 -9 200.71 8.98
0 -3 -9 239.42 10.94
0 3 -10 74.39 13.01
-3 0 -10 56.59 13.22
-3 0 10 88.92 10.93
0 -3 10 60.26 8.2
0 3 10 63.32 9.05
-3 0 -10 63.05 11.42
0 3 -10 54.77 9.56
-3 0 10 68.62 7.25
0 -3 -10 63.12 13.94
3 0 -10 99.43 12.95
-3 0 -10 68.99 7.74
0 -3 -10 56.68 10.88
3 0 -10 31.71 6.83
0 3 -11 1207.34 26.5
0 -3 11 1263.2 25.55
0 -3 -11 1212.17 31.08
-3 0 -11 1219.12 30.63
-3 0 11 1200.64 27.4
0 3 -11 1164.78 29.55
3 0 -11 1225.18 29.52
-3 0 -11 1237.48 28.59
0 -3 -11 1191.45 27.88
-3 0 -11 1219.62 24.29
0 3 -12 255.84 14.96
0 3 -12 242.82 18.24
-3 0 -12 232.75 18.21
0 -3 -12 232.6 18.83
3 0 -12 231.58 17.67
0 -3 -12 209.45 15.58
-3 0 -12 245.3 16.23
-3 0 -12 254.83 12.81
0 3 -13 105.73 11.43
0 3 -13 72.45 14.84
-3 0 -13 86.02 15.21
0 -3 -13 74.36 15.54
3 0 -13 97.14 14.87
0 -3 -13 65.52 12.2
-3 0 -13 45.81 12.26
0 3 -14 122.99 12.82
-3 0 -14 106.74 16.35
0 3 -14 132.16 16.87
0 -3 -14 112.32 17.36
3 0 -14 137.6 16.35
0 -3 -14 127 13.8
-3 0 -14 106.11 13.92
0 3 -15 42.17 11.82
0 3 -15 27.27 15.54
-3 0 -15 20.15 15.04
0 -3 -15 56.89 13.12
-3 0 -15 33.7 12.67
0 -3 -15 30.23 15.85
3 0 -15 39.2 15.58
0 3 -16 61.35 16.67
-3 0 -16 36.49 16.64
0 -3 -16 69.11 13.8
0 3 -16 56.93 12.28
-3 0 -16 48.52 14.44
0 -3 -16 60.72 17.66
3 0 -16 60.34 16.75
-3 0 -17 39.81 17.39
0 3 -17 37.45 17.49
0 -3 -17 27.85 13.43
0 3 -17 56.46 12.61
-3 0 -17 23.17 13.61
0 -3 -17 42.47 17.76
3 0 -17 37.62 17.23
0 3 -18 98.64 19.55
0 -3 -18 72.83 14.75
-3 0 -18 90.39 16.25
0 -3 -18 96.86 19.92
3 0 -18 83.37 19.29
-3 0 -18 105.4 19.99
0 3 -19 69.08 19.71
0 -3 -19 16.77 14
-3 0 -19 69.72 16.45
3 0 -19 82.54 20
0 -3 -19 88.51 20.11
-3 0 -19 59.36 19.24
0 3 -20 26.3 20.29
-3 0 -20 18.14 15.41
3 0 -20 10.78 19.55
-3 0 -20 2.94 19.54
-3 0 -21 20.43 16.41
-3 0 -21 19.65 20.13
3 0 -21 23.67 20.3
0 3 -21 38.51 21.17
-3 0 -22 43.36 17.46
3 0 -22 32.83 21.57
-3 0 -22 64.08 21.95
0 3 -22 88.01 22.52
-3 0 -23 37.38 18.16
-3 0 -23 63.7 23.8
0 3 -23 11.97 22.59
0 3 -24 39.89 23.84
-3 0 -24 19.03 23.75
-3 0 -25 24.96 24.55
0 3 -25 49.94 25.31
-3 0 -26 -34.91 25.76
0 3 -26 22.25 25.99
0 3 -27 73.53 28.51
-3 0 -27 46.74 27.35
0 3 -28 31.82 28.13
-3 0 -28 58.97 28.07
-1 3 -28 -20.24 27.97
-3 -1 -28 -35.36 27.18
-3 -1 -27 15.91 26.22
-1 3 -27 18.18 27.11
-3 -1 -26 14.18 25.54
-1 3 -26 -16.3 25.27
-1 3 -25 79.64 25.2
-3 -1 -25 26.19 25.23
3 1 -24 103.33 25.28
-3 -1 -24 152.03 26.08
-1 3 -24 145.62 26.01
-3 -1 -23 26.49 18.06
-3 -1 -23 67.91 23.84
3 1 -23 26.05 22.63
-1 3 -23 37.58 22.92
-3 -1 -22 -4.93 16.16
-1 3 -22 1.06 21.68
-3 -1 -22 -24.07 21.44
3 1 -22 5.97 21.55
-1 3 -21 22.22 20.47
-3 -1 -21 34.09 16.95
-3 -1 -21 38.43 21.36
3 1 -21 40.79 20.74
-1 3 -20 -3.82 19.19
-3 -1 -20 27.38 15.86
-3 -1 -20 13.8 19.64
-1 3 -19 9.9 18.69
-1 3 -19 19.21 14.01
-3 -1 -19 -2.9 14.53
-3 -1 -19 31.77 18.93
3 1 -19 4.24 18.45
-1 3 -18 0.85 17.89
-3 -1 -18 35.28 14.76
-1 3 -18 38.42 13.7
-3 -1 -18 -3.52 18.2
3 1 -18 22.29 17.98
-1 3 -17 53.66 18.08
-1 3 -17 83.9 14.38
-3 -1 -17 64.11 14.8
3 1 -17 76.72 17.84
-3 -1 -17 47.2 18.27
-1 3 -16 527.27 28.41
3 1 -16 548.71 28.39
-3 -1 -16 568.09 29.71
-1 3 -16 503.74 25.11
-3 -1 -16 528.49 26.45
1 -3 -16 411.34 23.69
-1 3 -15 49.16 12.45
-1 3 -15 57.6 16.22
-3 -1 -15 34.92 16.21
3 1 -15 37.58 14.96
1 -3 -15 14.28 11.55
-3 -1 -15 41.56 13.03
-1 3 -14 174.54 14.23
-3 -1 -14 141.29 17.24
-1 3 -14 139.88 17.21
3 1 -14 137.14 16.31
1 -3 -14 137.2 13.6
-3 -1 -14 145.85 15.1
-1 3 -13 205.22 14.48
-3 -1 -13 196.76 18
-1 3 -13 163.37 17.66
3 1 -13 208.91 16.86
1 -3 -13 163.84 14.23
-3 -1 -13 212.15 15.92
-1 3 -12 59.01 10.63
-1 3 -12 58.55 13.79
-3 -1 -12 54.81 14.35
3 1 -12 88.31 13.2
3 1 -12 -6.91 5.85
-3 -1 -12 63.76 12.32
-1 -3 12 64.42 8.33
-1 3 -11 140.17 12.38
-1 -3 11 145.73 10.25
-3 -1 -11 140.88 15.34
-1 3 -11 154.02 15.58
3 1 -11 147.88 14.47
-3 1 11 139.65 9.95
3 1 -11 166.16 9.26
-3 -1 -11 121.16 13.4
3 1 -10 64.55 7.38
1 3 10 63.7 9.04
-3 -1 -10 78.81 11.71
-1 3 -10 55.87 10.4
-3 1 10 71.89 7.86
-1 3 -10 89.64 13.57
-3 -1 -10 82.52 13.32
-3 1 10 67.16 11.1
3 1 -10 75.5 12.28
1 3 10 66.98 11.9
-1 -3 10 55.58 7.9
-1 3 -9 1235.12 19.48
-1 -3 9 1290.87 16.37
1 3 9 1240.21 18.51
3 1 -9 1262.18 14.57
-3 1 9 1187.21 14.97
-3 -1 -9 1201.26 21.16
1 3 9 1201.7 21
-3 1 9 1206.6 19.59
-3 -1 -9 1172.65 22.88
3 1 -9 1202.83 20.6
-1 3 -9 1247.02 22.87
1 -3 -9 1238.43 18.47
1 3 9 1212.09 20.49
-1 3 -8 1473.2 31.03
3 1 -8 1496.28 27.85
-3 -1 -8 1517.42 32.41
-3 1 8 1473.48 28.31
3 1 -8 1442.98 31.33
1 3 8 1495.5 32.39
-1 3 -8 1502.86 33.5
-3 -1 -8 1481.9 33.35
-3 1 8 1467.74 31.31
1 3 8 1521.81 31.96
3 -1 8 1496.29 31.91
1 -3 -8 1607.21 30.96
-1 3 -7 59.2 11.23
-3 -1 -7 65.17 10.15
1 3 7 4.27 3.84
-3 1 7 56.77 6.5
3 1 -7 67.72 5.69
3 -1 7 64.88 7.99
-1 3 -7 68.41 8.98
3 1 -7 85.35 9.69
-3 1 7 66.89 9.99
1 3 7 48.35 10.79
-3 -1 -7 56.01 11.23
1 3 7 64.34 9.94
1 3 6 287.34 11.42
-1 3 -6 303.08 10.59
-1 3 -6 283.54 12.97
3 1 -6 331.64 10.61
-3 -1 -6 286.96 12.91
-3 1 6 290.06 11.46
1 3 6 275.94 12.33
3 1 -6 284.81 6.31
-3 1 6 299.38 7.77
-3 -1 -6 308.82 11.93
3 1 -5 2737.63 88.74
-3 1 5 2735.63 89.34
-3 -1 -5 2802.99 91.09
-1 3 -5 2730.93 90.9
1 3 5 2718.79 90.79
-1 3 -5 2754.91 90.65
1 -3 -5 2754.58 90.87
-3 -1 -5 2767.99 91.3
1 3 5 2792.32 91.24
3 1 -5 2883.83 90.23
-3 1 5 2813.14 90.73
-1 3 -4 956.11 31.89
-1 -3 4 947.1 31.21
1 -3 -4 939.73 32.12
1 3 4 998.79 32.45
3 1 -4 1003.13 30.58
-3 -1 -4 995.96 32.24
-3 -1 -4 875.29 31.69
3 -1 4 828.53 29.33
-1 3 -4 802.65 31.04
1 -3 -3 3989.45 138.78
-3 1 3 3933.74 137.5
3 -1 3 4107.37 138.43
-1 3 -3 4046.36 138.68
-1 -3 3 4065.29 138.27
-3 -1 -3 3952.24 138.57
-3 -1 -3 4042.42 138.7
-3 -1 -2 331.72 15.03
-3 1 2 349.43 13.75
1 -3 -2 322.68 15.66
-1 3 -2 337.47 15.35
-1 -3 2 371.72 14.89
-3 -1 -2 379.48 14.91
3 -1 2 325.75 14.53
3 1 -1 215.83 8.39
-3 -1 -1 234.74 10.03
-3 1 1 196.17 9.62
-1 -3 1 204.9 10.62
1 -3 -1 193.53 11.48
1 3 1 207.25 10.9
3 -1 1 225.06 9.77
-3 -1 -1 193.59 9.37
-1 -3 1 196.39 10.63
-1 3 -1 202.68 11.8
-3 1 0 94.07 7.36
1 -3 0 97.01 8.83
-3 1 0 97.1 6.39
1 3 0 101.49 7.86
-1 -3 0 90.24 8.02
-3 -1 0 90.2 5.91
3 1 0 81.8 5.79
1 -3 0 92.94 9.64
-3 1 0 87.73 7.96
3 -1 -1 196.06 10.29
1 -3 1 203.58 11.84
1 3 -1 213.95 10.54
-1 -3 -1 221.85 11.62
-3 1 -1 240.71 10.58
1 3 -1 214.99 10.42
3 -1 -1 210.55 11.23
1 -3 1 213.69 12.42
3 1 1 245.12 10.16
-3 -1 1 217.95 8.71
3 1 2 304.55 9.65
1 -3 2 334.41 11.25
3 -1 -2 344.92 9
1 3 -2 348.7 9.43
-1 -3 -2 310.32 11.13
-1 3 2 245.94 10.28
-3 1 -2 318.15 10.03
3 1 2 346.38 9.47
1 3 -3 4140.61 130.44
1 -3 3 4153.65 131.35
3 -1 -3 4122.88 129.89
-1 3 3 4030.39 131.04
3 1 3 4226.75 130.73
-3 -1 3 4157.5 129.79
3 1 3 4084.99 130.81
-3 1 -3 4124.64 131.01
-3 1 -4 911.68 33.46
1 3 -4 917.71 32.21
-3 1 -4 765.69 32.78
3 -1 -4 896.37 31.51
-3 -1 4 931.71 31.75
3 1 4 948.23 33.05
-1 3 4 771.77 32.98
3 1 4 825.25 32.58
1 3 -5 2870.31 100.97
-3 1 -5 2942.78 101.91
3 -1 -5 2888.54 100.42
-3 -1 5 2965.91 100.91
3 1 5 2950.93 101.67
-3 1 -5 2955.48 102.24
1 3 -5 2919.87 101.5
-3 -1 5 2886.29 99.68
1 3 -5 2906.78 100.81
-1 3 5 2861.26 101.83
1 3 -6 302.6 14.22
-3 1 -6 301.6 15.4
-3 -1 6 310.37 12.21
1 3 -6 302 13.46
-3 1 -6 321.42 12.63
3 1 6 296.14 14.06
1 3 -6 287.47 15.17
-3 -1 6 305.3 14.38
-3 1 -6 315.06 16.7
3 1 6 308.86 15.8
-1 -3 -6 308.45 15.89
-1 3 6 321.12 14.5
-1 3 6 311.04 16.26
-3 -1 7 44.73 8.77
1 3 -7 40.74 8.19
3 1 7 61.54 10.58
1 3 -7 65.42 10.31
-3 1 -7 68.46 11.72
-3 1 -7 57.85 6.18
-1 3 7 61.87 11.29
3 1 7 64.11 8.49
-3 1 -7 77.93 9.97
-1 3 7 67.72 10.79
-1 -3 -7 57.24 11.67
-1 3 7 67.89 8.37
-1 -3 -7 53.04 9.88
1 -3 7 60.73 8.01
-3 -1 7 59.3 5.8
1 3 -7 44.13 7.26
3 1 8 1542.54 54.68
-3 1 -8 1542.36 55.81
3 1 8 1544.04 55.05
1 3 -8 1509.1 54.45
-3 -1 8 1555.94 53.4
1 -3 8 1551.5 54.73
-3 1 -8 1525.7 56.74
1 3 -8 1516.8 55.99
-3 -1 8 1496.81 54.84
3 1 8 1491.76 55.68
-1 3 8 1491.28 55.88
-1 -3 -8 1427.53 56.62
-1 -3 -8 1482.36 55.78
-1 3 8 1511.28 54.7
-3 1 -8 1487.76 53.53
-3 -1 9 1308.35 41.48
1 3 -9 1234.98 42.52
1 -3 9 1294.93 42.91
3 1 9 1281.62 43.02
-1 3 9 1279.4 44.26
-3 -1 9 1282.16 43.32
-3 1 -9 1181.77 45.03
1 3 -9 1234.25 44.34
3 1 9 1302.82 44.26
-1 -3 -9 1228.42 45.62
-1 -3 -9 1222.82 44.11
-3 1 -9 1252.02 44.25
-1 3 9 1306.23 42.97
-3 1 -9 1210.26 41.51
1 3 -10 80.08 12.43
-3 1 -10 78.24 13.46
-3 -1 10 78.15 10.67
-1 3 10 72.86 9.15
1 3 -10 47.59 8.52
-3 1 -10 79.73 11.77
-3 -1 10 80.77 7.31
1 -3 10 63.82 8.81
-1 -3 -10 99.95 14.33
3 -1 -10 64.5 7.8
-1 -3 -10 68.41 11.17
-3 1 -10 68.12 7.22
1 3 -11 152.58 10.94
-3 1 -11 161.55 13.64
-3 1 -11 134.61 15.32
-3 -1 11 143.05 12.37
1 3 -11 156.74 14.76
3 -1 -11 129.22 14.35
-1 -3 -11 140.21 15.76
3 -1 -11 90.28 8.73
-1 3 11 145.58 10.89
-1 -3 -11 146.13 13.31
-3 1 -11 139 9.01
3 -1 -12 54.93 13.7
-1 -3 -12 70.63 14.81
-1 -3 -12 44.88 11.3
1 3 -12 57.58 9.57
-3 1 -12 57.65 12.34
1 3 -12 75.37 14.02
-3 1 -12 57.33 14.23
-3 1 -13 200.55 14.38
3 -1 -13 220.85 16.56
-1 -3 -13 168.68 17.04
1 3 -13 223.53 12.3
-1 -3 -13 193.35 14.13
-3 1 -13 208.99 17.3
1 3 -13 171.76 15.54
-3 1 -14 130.41 14.46
3 -1 -14 116.93 16.63
-1 -3 -14 108.97 17.46
-1 -3 -14 138.51 14.65
1 3 -14 158.25 12.5
1 3 -14 129.79 16.84
-3 1 -14 128.67 17.58
-3 1 -15 31.03 12.98
1 3 -15 80.91 11.31
3 -1 -15 37.65 15.75
-1 -3 -15 54.35 16.73
-1 -3 -15 6.76 11.91
-3 1 -15 34.09 16.12
1 3 -15 22.46 14.86
3 -1 -16 491.39 28.24
-3 1 -16 515.75 26.41
-1 -3 -16 486.86 25.91
1 3 -16 608.75 24.45
1 3 -16 507.59 28.51
-3 1 -16 491.22 28.9
-1 -3 -16 460.87 28.91
1 3 -17 63.8 17.26
-3 1 -17 40.38 18.07
-1 -3 -17 53 14.11
-3 1 -17 67.07 14.83
3 -1 -17 56.79 17.77
-1 -3 -17 63.18 18.38
-3 1 -18 43.91 18.82
1 3 -18 30.19 18.21
-1 -3 -18 33.27 14.54
-3 1 -18 19.78 14.34
3 -1 -18 8.86 18.13
-1 -3 -18 23.75 18.23
-3 1 -19 20.55 19.31
1 3 -19 28.67 19.04
-1 -3 -19 34.28 14.69
-3 1 -19 2.9 14.83
-1 -3 -19 15.78 19.21
-3 1 -20 31.52 19.94
-1 -3 -20 11.76 15.54
-3 1 -20 -6.86 15.25
-1 -3 -20 40.05 19.51
1 3 -20 13.74 19.3
-1 -3 -21 67.71 16.75
-3 1 -21 34.75 17.18
1 3 -21 16.43 20.48
-3 1 -21 50.56 20.91
-1 -3 -21 13.31 20.02
-3 1 -22 10.66 16.32
-3 1 -22 -15.17 20.99
-1 -3 -22 28.91 21.31
1 3 -22 11.21 21.24
1 3 -23 62.19 23.58
-3 1 -23 64.75 23.17
-3 1 -24 78.4 24.74
1 3 -24 130.18 25.87
1 3 -25 103.4 26.8
-3 1 -25 90.3 25.92
1 3 -26 20.91 26.4
-3 1 -26 32.19 25.67
-3 1 -27 34.8 27.19
1 3 -27 8.89 27.53
-3 1 -28 23.36 27.85
-2 3 -28 4.07 28.17
-3 -2 -27 -2.63 25.79
-2 3 -27 7.9 27.32
-2 3 -26 12.73 25.98
-3 -2 -26 25.63 25.62
-2 3 -25 69.73 25.71
-3 -2 -25 11.18 23.9
-2 3 -24 34.06 24.37
-3 -2 -24 32.4 24.15
-3 -2 -23 56.24 18.22
-2 3 -23 39.51 23.78
3 2 -23 42.96 23.2
-3 -2 -23 23.07 22.9
-3 -2 -22 21.98 17.1
-2 3 -22 64.89 22.69
3 2 -22 1 21.91
-3 -2 -22 26.53 22.43
-3 -2 -21 19.39 16.26
-2 3 -21 21.55 21.12
3 2 -21 40.73 21.74
-3 -2 -21 -23.19 21.14
-2 3 -20 5.83 20.61
-3 -2 -20 26.16 16.05
-2 3 -20 7.12 14.58
3 2 -20 6.27 20.02
-3 -2 -20 17.06 20.38
-2 3 -19 82.26 20.05
-3 -2 -19 81.44 16.24
-2 3 -19 83.68 15.85
3 2 -19 76.9 19.77
-3 -2 -19 77.55 20.39
-3 -2 -18 203.03 22.4
3 2 -18 165.19 21.2
-3 -2 -18 206.96 18.89
-2 3 -18 214.48 18.24
-2 3 -18 200.68 22.41
3 2 -17 101.54 18.17
-3 -2 -17 105.75 18.89
-2 3 -17 98.88 18.93
-2 3 -17 83.38 15.09
-3 -2 -17 96.95 15.73
-3 -2 -16 2.36 16.85
3 2 -16 27.17 15.81
-2 3 -16 17.02 16.81
-2 3 -16 -6.51 13.46
-3 -2 -16 22.84 13.15
-3 -2 -15 236.37 20.78
3 2 -15 225.11 19.29
-3 -2 -15 257.18 18.27
-2 3 -15 246.37 20.67
-2 3 -15 217.34 17.26
-2 3 -14 220.24 19.99
-3 -2 -14 221.04 19.34
3 2 -14 228.27 18.49
-2 3 -14 240.07 16.65
-3 -2 -14 229.84 17
-3 -2 -13 102.79 15.72
3 2 -13 103.29 14.53
-2 3 -13 95.13 15.6
-2 3 -13 101.55 12.44
3 2 -13 45.87 6.47
-3 -2 -13 100.18 13.39
-2 3 -12 191.22 14.65
-3 -2 -12 171.94 17.38
3 2 -12 204.35 16.25
3 2 -12 275.24 11.65
-2 3 -12 167.07 17.49
-3 -2 -12 198.38 15.83
-2 3 -11 383.95 20.18
-2 -3 11 392.16 19.61
-3 -2 -11 397.25 22.47
-2 3 -11 349.1 21.89
3 2 -11 371.27 21.04
-3 2 11 390.85 17.68
-3 -2 -11 385.35 20.9
3 2 -11 483.53 17.29
2 3 11 405.09 20.68
-2 3 -10 387.3 18.57
-2 -3 10 349.55 15.53
-2 -3 10 317.32 17.51
-3 2 10 341.72 18.34
-3 -2 -10 348.2 20.07
-2 3 -10 336.85 20.31
3 2 -10 352.47 18.99
3 2 -10 385.88 15.23
-3 2 10 342.11 15.78
-3 -2 -10 325.93 18.93
2 3 10 353.9 18.49
-2 3 -9 194.73 14.55
-2 3 -9 180.17 11.52
2 3 9 193.76 12.86
3 2 -9 197.58 12.14
-3 2 9 188.5 12.19
-3 -2 -9 175.24 14.08
-3 2 9 187.89 8.73
3 2 -9 162.56 7.49
-3 -2 -9 202 12.91
3 -2 9 -1.89 3.52
2 3 9 193.2 11.95
-3 -2 -8 98.38 12.41
2 3 8 81.21 11.33
3 2 -8 79.06 10.12
-2 3 -8 99.33 12.68
2 3 8 6.01 5.31
-3 2 8 95.68 7.32
-3 -2 -8 96.56 11.17
2 3 8 81.98 10.42
-3 2 8 64.83 10.64
3 2 -8 52.66 5.98
3 -2 8 0.59 1.89
-2 3 -8 105.18 10.68
2 3 7 303.88 15.69
-3 -2 -7 305.25 16.58
3 2 -7 276.64 14.02
-3 2 7 310.98 15.35
-2 3 -7 300.21 16.65
2 3 7 284.97 14.98
-2 3 -7 304.86 14.78
3 -2 7 107.51 11.67
2 -3 -7 291.59 14.9
3 2 -7 266.44 11.22
-3 -2 -7 281.34 15.51
2 3 7 282.44 14.05
-3 2 7 314.05 12.67
-3 2 6 1226.27 43.59
-3 -2 -6 1238.92 45.39
3 2 -6 1151.12 42.9
3 2 -6 1230.46 42.67
2 -3 -6 1182.89 44.62
-3 2 6 1207.9 45.04
-2 3 -6 1248.27 44.99
3 -2 6 1279.05 44.62
2 3 6 1216.24 45.29
3 2 -6 1155.07 43.93
-3 -2 -6 1193.1 45.62
2 3 6 1289.9 45.03
2 -3 -6 1281.53 44.63
-2 3 -5 1175.54 21.91
3 2 -5 1116.77 16.65
3 2 -5 1127.5 16.14
2 -3 -5 1151.83 20.81
-3 -2 -5 1165.86 21.81
3 2 -5 1109.26 18.63
2 3 5 1114.11 21.48
-3 -2 -5 1110.99 21.93
-2 3 -5 1160.71 21.13
3 2 -4 456.38 10.53
-2 3 -4 471.49 14.61
-3 2 4 473.88 13.03
2 -3 -4 478.85 15.15
-3 -2 -4 475.34 15.02
3 2 -4 514.77 12.35
2 3 4 510.29 15.26
-3 -2 -4 459.78 15
-2 3 -4 478.55 15.54
3 2 -4 473.4 10.98
-2 -3 4 513.58 13.34
3 -2 3 1224.67 46.47
-3 2 3 1279.14 46.18
2 -3 -3 1317.57 47.07
3 2 -3 1341.83 45.31
-3 -2 -3 1354.56 46.88
2 3 3 1354.45 47.21
2 -3 -3 1234.05 46.5
-2 -3 3 1313.29 45.98
2 3 3 1262.99 46.9
-3 -2 -3 1282.24 47.1
-3 -2 -2 931.56 33.01
2 -3 -2 792.33 32.76
-3 -2 -2 943.99 33.5
2 3 2 858.65 33.17
-3 2 2 909.7 33.16
-2 -3 2 967.95 32.59
2 -3 -2 900.92 33.69
-2 -3 1 330.24 13.68
2 -3 -1 311.2 14.9
-2 -3 1 323.11 12.99
2 -3 -1 320.83 16.04
-3 -2 -1 302.36 12.81
3 2 -1 312.45 12.27
-3 -2 -1 311.83 13.7
3 -2 1 322.37 15.08
-3 2 1 286.66 14.2
-3 2 0 2099.39 18.92
2 -3 0 2167.45 20.72
3 -2 0 2155.91 19.82
3 -2 0 2414.25 15.37
3 2 0 2215.19 16.37
-2 -3 0 2228.21 18.92
2 -3 0 2199.53 22.4
-3 2 0 2127.09 20.26
3 -2 0 2125.89 21.09
3 2 1 316.95 11.76
3 2 1 325.33 12.62
3 -2 -1 292.76 13.66
-3 2 -1 283.33 12.99
2 -3 1 327.77 14.51
-2 3 1 120.69 11.62
2 3 -1 325.03 12.23
-2 -3 -1 331.23 13.87
-3 2 -1 212.89 12.91
3 -2 -1 339.04 15.04
-2 3 1 323.06 12.7
3 2 2 873.4 17.43
3 -2 -2 912.45 18.19
2 -3 2 923.39 19.33
2 3 -2 925.39 16.04
-3 -2 2 913.52 14.62
-2 3 2 832.15 17.58
2 3 -2 928.6 15.97
-3 2 -2 829.05 17.48
3 2 2 932.14 16.9
-2 3 2 871.74 17.58
-2 3 3 1184.82 41.62
3 -2 -3 1111.68 40.99
2 3 -3 1132.28 40.13
-2 3 3 1127.06 41.13
3 2 3 1089.93 40.96
-3 2 -3 1119.11 41.16
3 2 3 1153.81 41.06
3 2 4 483.6 20.16
-3 -2 4 474.92 18.45
2 3 -4 516.65 19.27
2 3 -4 488.58 18.9
-2 3 4 483.35 20.75
3 -2 -4 484.62 19.49
-3 2 -4 475.16 20.32
-2 3 4 474.53 19.85
-2 -3 -4 488.14 20.54
3 2 4 467.5 19.81
3 2 5 1202.1 42.72
-2 -3 -5 1155.57 43.29
2 3 -5 1149.1 41.66
-3 2 -5 1158.03 43.16
3 -2 -5 1183.31 42.1
3 2 5 1136.11 42.93
2 3 -5 1170.11 42.2
-3 -2 5 1174.27 41.71
2 3 -5 1208.49 41.45
-3 2 -5 1135.25 40.52
-2 -3 -5 1217.15 43.67
2 3 -6 1177.04 21.99
-3 2 -6 1093.71 26.02
2 3 -6 1063.99 22.24
-3 2 -6 1134.51 24.96
3 -2 -6 1087.27 22.88
-2 -3 -6 1040.26 25.97
3 2 6 1113.83 24.82
2 3 -6 1099.84 23.41
-3 -2 6 1078.97 22.7
-3 2 -6 1140.21 20.38
-2 -3 -6 1112 25.3
-2 3 6 1148.66 23.25
2 -3 7 261.54 11.1
3 2 7 282.05 12.44
-3 2 -7 293.97 15.21
2 3 -7 272.96 11.32
2 3 -7 264.84 10.49
-3 2 -7 264.21 13.23
3 -2 -7 275.37 11.85
-2 -3 -7 273.8 14
-2 3 7 285.19 11.76
-3 -2 7 283.37 11.99
-2 -3 -7 282.22 15.57
3 2 7 290.78 13.75
2 3 -7 314.13 12.75
-3 2 -7 263.67 9.04
2 3 -8 77.04 9.07
-3 -2 8 86.77 9.55
-3 2 -8 76.28 12.27
2 -3 8 92.8 8.91
-3 -2 8 96.44 6.82
-2 -3 -8 81.42 12.83
-2 3 8 1.76 4.95
3 2 8 95.79 9.95
-3 2 -8 91.33 6.62
2 3 -8 105.22 10.62
3 2 8 82.17 10.89
-2 3 8 93.55 8.58
-2 -3 -8 90.14 11.23
3 2 8 92.78 9.54
2 3 -8 99.91 7.53
-3 2 -8 82.96 10.74
2 -3 9 182.82 10.81
-3 -2 9 157.8 8.39
-3 2 -9 153.82 12.68
3 2 9 167.33 11.64
2 3 -9 171 9.12
3 2 9 166.45 12.84
2 3 -9 145.45 13.25
-2 -3 -9 158.65 14.99
-2 3 9 1.14 6.36
-3 2 -9 127.62 14.02
-3 -2 9 161.34 11.37
-2 3 9 173.56 10.24
3 2 9 162.71 10.92
-2 -3 -9 147.83 12.78
-3 2 -9 161.57 8.36
3 2 10 359.4 17.89
-3 2 -10 338.68 14.89
2 3 -10 365.9 19.04
-2 -3 -10 375.86 21.16
-3 2 -10 347.41 20.37
-3 -2 10 353.2 17.53
2 3 -10 329.57 15.57
-3 2 -10 364.47 18.59
-2 -3 -10 346.22 18.97
-2 3 10 363.74 16.57
-3 -2 10 349.8 15.01
-3 -2 11 400.11 19.79
2 3 -11 406.21 21.51
-2 -3 -11 415.57 23.02
-3 2 -11 365.51 22.46
2 3 -11 431.3 18.29
-3 2 -11 451.4 21.27
-2 -3 -11 378.68 20.85
-2 3 11 407.46 18.57
3 2 11 448.1 20.48
-2 -3 -12 192.52 17.69
-2 3 12 196.74 12.36
2 3 -12 220.83 12.51
-2 -3 -12 177.5 15.28
-3 2 -12 189.62 17.16
2 3 -12 192.58 16.1
-3 2 -12 205.43 15.21
-2 -3 -13 90.55 16.56
-2 -3 -13 92.04 13.41
2 3 -13 98.98 14.72
-3 2 -13 87.1 16.23
2 3 -13 129.97 10.82
-3 2 -13 92.16 13.43
-3 2 -14 258.47 17.88
-2 -3 -14 251.76 18.17
2 3 -14 321.51 14.92
-2 -3 -14 233.32 20.05
2 3 -14 214.77 18.78
-3 2 -14 246.07 20.53
-3 2 -15 239.63 17.81
-2 -3 -15 225.15 17.96
-2 -3 -15 203.73 20.54
2 3 -15 233.99 19.4
-3 2 -15 226.17 20.3
-3 2 -16 -9.83 13.24
-2 -3 -16 0.63 13.76
-2 -3 -16 1.59 16.8
2 3 -16 17.37 15.46
-3 2 -16 10.98 16.11
-3 2 -17 123.58 16.14
-2 -3 -17 77.28 15.38
-2 -3 -17 104.07 20.05
2 3 -17 105.35 18.44
-3 2 -17 110.92 19
-3 2 -18 196.77 18.24
-2 -3 -18 199.32 18.87
2 3 -18 181.5 21.64
-2 -3 -18 175.51 22.27
-3 2 -18 178.71 22.01
-3 2 -19 111.25 16.96
-2 -3 -19 110.97 17.19
2 3 -19 92.97 20.06
-2 -3 -19 80.42 20.08
-3 2 -19 118.54 20.97
-3 2 -20 -0.75 15.11
-2 -3 -20 27.52 16.37
-2 -3 -20 -0.99 20.16
2 3 -20 19.76 19.94
-3 2 -20 21.72 20.2
-3 2 -21 6.32 16.33
-2 -3 -21 23.95 16.57
2 3 -21 -16.19 20.73
-2 -3 -21 10.42 20.68
-3 2 -21 23.99 21.15
-3 2 -22 65.54 18.31
-2 -3 -22 55.47 22.41
2 3 -22 35.15 21.65
-3 2 -22 57.93 22.84
-2 -3 -22 18.31 17.19
-2 -3 -23 18.13 22.24
2 3 -23 40.14 22.62
-3 2 -23 89.89 24.09
-3 2 -24 10.69 23.4
2 3 -24 12.23 23.72
-3 2 -25 42.11 24.76
-3 2 -26 20.56 25.65
-3 2 -27 2.66 26.93
-3 2 -28 75.78 29.19
-3 -3 0 355.75 10.72
3 -3 0 376.87 13.75
-3 3 0 393 9.2
3 -3 0 349.85 12.56
-3 3 0 348.54 10.98
3 -3 -1 472.22 12.81
3 -3 1 455.51 13.41
-3 3 1 452.81 11.37
-3 -3 1 450.93 10.13
3 3 1 403.61 10.38
3 -3 -1 339.41 9.04
3 -3 -1 499.05 14.47
-3 -3 1 456.18 7.96
3 3 1 459.31 9.62
-3 3 1 398.7 10.17
-3 3 -1 402.39 7.43
3 3 2 170.92 9.08
3 -3 2 191.27 12.02
-3 3 2 173.42 9.26
-3 -3 2 183.55 7.77
3 -3 -2 170.07 10.9
3 3 -2 168.27 7.33
3 -3 -2 161.36 8.2
3 3 2 170.92 9.08
3 3 -2 187.25 6.82
3 3 3 1207.32 43.72
-3 -3 -3 1120.23 44.06
-3 -3 3 1227.79 42.64
3 -3 -3 1239.35 43.96
3 3 -3 1222.77 42.52
-3 3 3 1197.21 43.48
3 -3 -3 1202.95 43.4
-3 3 -3 1192.54 44.02
3 3 3 1222.82 43.66
3 3 4 1849.39 64.32
3 3 -4 1863.01 63.27
3 3 4 1760.77 64.27
-3 -3 -4 1748.33 64.76
-3 -3 4 1814.16 63.05
3 -3 -4 1751.67 64.14
3 3 -4 1853.52 62.95
-3 3 -4 1729.17 64.53
-3 -3 -4 1828.58 64.7
-3 3 4 1810.7 63.89
3 -3 -4 1795.86 64.02
3 -3 -5 487.55 16.51
3 3 -5 517.8 14.16
-3 3 -5 417.38 16.69
-3 -3 -5 409.83 16.92
3 3 5 429.94 16.03
3 3 -5 492.64 15.02
3 3 5 484.55 17.04
-3 -3 -5 496.19 17.87
3 3 6 168 11.2
3 3 -6 152.09 8.42
3 3 -6 168.39 7.55
3 -3 -6 177.07 10.54
3 3 -6 181.85 6.55
-3 3 -6 191.44 11.07
3 -3 6 176.8 8.92
-3 -3 -6 164.19 12.24
-3 -3 -6 174.97 11.11
3 3 7 187.41 11.81
-3 3 7 214.24 12.54
-3 -3 -7 191.71 14.09
3 3 -7 170.22 10.72
3 3 7 186.87 12.57
-3 3 -7 178.79 14.07
3 3 -7 177.35 9.28
3 3 -7 202.67 8.44
-3 3 -7 200.96 12.42
3 -3 -7 186.53 11.29
3 -3 -7 180.9 10.14
3 -3 7 2.8 5.97
-3 -3 -7 209.29 13.23
-3 3 7 195.46 9.99
3 -3 -8 1.61 9.19
-3 -3 -8 9.5 12.08
-3 3 8 24.35 9.83
3 3 -8 -15.88 9.28
3 3 8 6.56 10.14
-3 3 -8 -3.85 11.5
-3 -3 8 -0.76 8.27
3 3 -8 -1.23 7.32
-3 3 -8 -9.4 10.14
3 -3 8 -0.3 1.82
3 3 8 7.72 9.44
3 -3 -8 2.42 7.82
3 3 -8 24.08 5.92
-3 -3 -8 -1.51 10.08
-3 3 8 5.47 6.93
-3 -3 9 496.03 21.76
3 3 -9 487.97 20.52
-3 3 -9 514.6 23.21
3 3 -9 498.23 19.99
3 -3 -9 464.16 22.1
-3 -3 -9 560.68 23.75
-3 3 9 514.15 20.91
-3 -3 -9 512.83 24.57
3 3 -9 508.33 22.73
-3 3 -9 472.11 24.56
-3 3 9 510.18 23.2
3 3 9 507.25 23.19
3 3 9 563.27 22.84
-3 -3 10 -7.26 8.99
-3 3 -10 2.05 12.76
-3 3 10 -6.59 7.12
-3 -3 -10 12.64 12.67
3 3 10 -0.35 10.28
3 3 -10 3.07 10.59
-3 -3 -10 6.65 10.38
3 3 -10 -0.44 6.03
-3 3 -10 13.1 10.64
-3 -3 11 11.48 9.18
-3 3 -11 17.41 13.66
3 3 11 7.3 10.52
-3 3 11 -0.3 7.25
-3 -3 -11 8.85 13.21
-3 -3 -11 15.26 11.01
3 3 -11 2.27 6.58
-3 3 -11 -4.94 10.4
3 3 -11 1.72 11.47
-3 -3 -12 575.02 29.02
-3 3 -12 620.77 29.04
3 3 -12 574.47 27.16
3 3 12 598.88 26.29
-3 -3 -12 609.19 27.64
3 3 -12 583.59 23.75
-3 3 -12 580.59 26.73
-3 3 -13 9.71 13.87
3 3 -13 21 12.94
-3 -3 -13 37.02 12.23
-3 3 -13 21.65 11.58
-3 -3 -13 37.87 14.94
3 3 -14 87.82 15.18
-3 3 -14 106.89 16.6
-3 -3 -14 98.43 14.2
-3 3 -14 89.24 13.78
-3 -3 -14 124.65 17.49
-3 3 -15 54.05 16.92
3 3 -15 54.05 15.66
-3 -3 -15 49.16 13.97
-3 3 -15 105.4 14.41
-3 -3 -15 43.14 17.16
-3 3 -16 11.15 16.94
-3 -3 -16 3.91 13.61
-3 3 -16 5.05 13.53
3 3 -16 25.68 15.55
-3 -3 -16 38.85 17.79
-3 3 -17 33.01 17.89
-3 -3 -17 1.38 14.63
-3 3 -17 4.62 13.57
3 3 -17 7.26 16.55
-3 -3 -17 6.87 17.62
3 3 -18 24.91 18.26
-3 -3 -18 27.3 19.23
-3 -3 -18 14.53 14.74
-3 3 -18 30.23 14.42
-3 3 -18 66.4 19.35
3 3 -19 11.65 18.46
-3 -3 -19 35.54 20.01
-3 -3 -19 -7.62 15.8
-3 3 -19 15.06 14.48
-3 3 -19 13.24 18.73
-3 -3 -20 336.92 24.3
-3 3 -20 343.15 23.44
3 3 -20 342.42 27.53
-3 -3 -20 317.97 28.08
-3 3 -20 361.52 28.45
-3 -3 -21 26.43 21.06
3 3 -21 10.3 20.59
-3 -3 -21 -14.13 16.44
-3 3 -21 23.47 16.39
-3 3 -21 -1.04 20.54
-3 -3 -22 33.16 22.08
3 3 -22 37.76 22.09
-3 -3 -22 -6.92 17.39
-3 3 -22 26.98 17.2
-3 3 -22 9.91 21.88
-3 3 -23 38.07 23.94
-3 -3 -23 20.69 23.06
-3 -3 -23 35.92 18.59
-3 -3 -24 -4.78 22.74
-3 3 -24 17.97 23.89
-3 -3 -24 31.64 18.84
-3 -3 -25 49.41 24.94
-3 3 -25 84.43 26
-3 3 -26 -3.86 25.63
-3 3 -27 40.01 27.62
-3 3 -28 60.44 28.87
0 -4 0 1670.96 60.67
0 4 0 1703.92 60.3
4 0 0 1716.52 59.45
-4 0 0 1658.72 59.56
-4 0 0 1719 59.65
0 -4 0 1773.84 60.9
0 -4 1 112.91 9.86
0 4 -1 82.43 8.85
-4 0 -1 34.05 8.49
-4 0 1 26.96 5.43
0 -4 -1 89.95 9.91
4 0 1 21.47 7.49
4 0 -1 118.05 8.05
0 4 -1 117.57 9.98
0 -4 1 101.76 10.55
0 -4 -2 504.99 21.11
0 -4 2 522.04 20.68
-4 0 2 518.04 17.86
0 4 -2 528.62 20.54
-4 0 2 438.72 17.51
4 0 2 478.28 19.41
-4 0 -2 462.35 19.75
0 4 -2 529.92 20.24
0 -4 -3 1167.57 43.83
-4 0 -3 1218 43.27
4 0 3 1204.1 42.8
-4 0 -3 1139.52 43.08
0 4 -3 1193.25 43.07
0 -4 3 1182.1 43.45
-4 0 -4 4463.79 150.87
4 0 4 4393.25 150.45
0 -4 -4 4416.62 151.09
-4 0 4 4339.33 149.83
0 -4 4 4248.36 150.79
0 4 -4 4344.64 150.46
-4 0 -4 4250.3 150.77
-4 0 -5 2857.91 98.84
-4 0 5 2709.43 96.27
0 4 -5 2872.3 98.2
4 0 -5 2834.23 96.36
0 -4 -5 2843.25 98.95
0 4 5 2720.6 98.65
4 0 5 2918.52 98.38
-4 0 5 2890 97.81
-4 0 -5 2852.53 98.92
0 4 -6 5.32 7.04
0 4 6 14.62 10.4
-4 0 6 20.19 8.12
-4 0 -6 24.63 10.48
4 0 6 20.12 9.51
0 4 -6 10.86 7.69
-4 0 6 14.16 4.27
-4 0 -6 17.67 9.48
0 4 6 24.22 9.63
4 0 6 10.44 5.93
4 0 -6 21.19 5.19
0 4 6 1.05 5.16
0 4 -7 758.81 28.97
4 0 7 738.54 27.79
0 4 7 749.7 30.25
0 4 -7 734.82 28.89
-4 0 7 785.87 29.19
-4 0 -7 731.04 30.64
-4 0 -7 736.54 30.31
0 4 7 708.91 28.88
-4 0 7 718.88 26.82
4 0 7 779.03 29.93
0 4 -7 816.55 30.78
0 4 -8 600.55 24.18
0 4 8 554.84 25.43
4 0 8 562.98 23.12
4 0 8 655.82 25.42
0 4 -8 646.06 26.47
0 4 -8 584.02 24.03
-4 0 -8 603.46 25.9
-4 0 8 547.59 21.87
0 4 8 569.92 24.06
-4 0 8 621.25 24.52
-4 0 -8 648.36 26.73
0 4 9 28.71 8.23
0 4 9 8.35 11.47
-4 0 -9 48.14 12.82
-4 0 9 49.01 10.08
-4 0 9 21.51 5.72
-4 0 -9 25.06 10.98
0 4 -9 47.44 8.5
0 4 -9 50.43 12.35
0 4 -9 31.46 8.01
4 0 9 37.75 10.41
-4 0 -10 24.33 11.06
0 4 10 26.47 11.72
0 4 -10 17.45 11.65
-4 0 10 21.54 9.61
-4 0 -10 39.36 13.1
4 0 -10 33.24 11.84
0 4 -10 19.8 9.09
4 0 -11 173.67 13.98
0 4 -11 149.56 11.07
-4 0 -11 175.18 13.33
0 4 -11 158.41 14.32
-4 0 11 134.27 11.74
-4 0 -11 172.3 15.24
4 0 -12 1155.62 23.95
-4 0 -12 1164.14 23.46
0 4 -12 1123.84 20.22
-4 0 -12 1141.31 25.67
0 4 -12 1200.78 24.98
0 4 -13 45.96 10.23
-4 0 -13 23.09 14.12
0 4 -13 41.52 13.91
-4 0 -13 47.21 12.69
4 0 -13 44.31 13.73
0 4 -14 21.34 10.4
0 4 -14 12.95 14.96
-4 0 -14 23.49 15.52
-4 0 -14 14.47 12.32
4 0 -14 4.71 13.88
0 4 -15 11.19 10.86
0 4 -15 16.62 15.06
-4 0 -15 8.14 15.57
-4 0 -15 14.13 13.11
4 0 -15 23.56 15.19
0 4 -16 187.93 16.02
0 4 -16 165.52 19.28
-4 0 -16 175.65 20.18
-4 0 -16 192.8 17.51
4 0 -16 208.94 19.72
0 4 -17 -7.79 12.38
-4 0 -17 6.96 13.87
4 0 -17 4.41 16.65
-4 0 -17 11.83 17.73
0 4 -17 18.23 17.26
-4 0 -18 24.25 15.11
4 0 -18 2.35 17.82
-4 0 -18 14.38 18.74
0 4 -18 10.93 18.24
-4 0 -19 62.71 16.45
-4 0 -19 36 20.29
0 4 -19 31.15 19.76
-4 0 -20 257.33 21.65
-4 0 -20 226.09 24.57
0 4 -20 239.07 24.74
-4 0 -21 82.5 17.92
-4 0 -21 82.83 22.5
0 4 -21 123.6 23.77
-4 0 -22 22.26 17.17
-4 0 -22 -6.61 21.95
0 4 -22 14.69 21.69
-4 0 -23 6.22 17.79
0 4 -23 40.47 23.4
-4 0 -23 23.06 22.59
-4 0 -24 63.24 19.29
-4 0 -24 55.35 24.69
0 4 -25 17.87 24.76
-4 0 -25 3.77 24.34
-4 0 -26 9.16 25.36
0 4 -26 66.8 26.93
-4 0 -27 20.22 26.26
0 4 -27 14.09 27.91
0 4 -28 49.12 28.76
-4 0 -28 69.45 28.23
-1 4 -28 33.5 28.42
-4 -1 -28 16.54 27.14
-4 -1 -27 51.1 26.7
-1 4 -27 85.82 28.79
-1 4 -26 21.38 26.06
-4 -1 -26 9.15 24.58
-1 4 -25 31.43 25.9
-4 -1 -25 36.53 25.03
-4 -1 -24 15.8 23.64
-1 4 -24 31.41 23.8
-4 -1 -24 14.75 18.5
-4 -1 -23 66.66 19.25
-1 4 -23 103.07 24.78
-4 -1 -23 47.54 23.5
-1 4 -22 40.57 22.17
-4 -1 -22 53.43 17.9
-4 -1 -22 43.09 22.6
4 1 -22 72.13 22.82
-1 4 -21 65.62 22.12
-4 -1 -21 21.56 16.59
4 1 -21 46.35 21.44
-4 -1 -21 100 22.07
-1 4 -20 104.07 21.81
-4 -1 -20 98.75 17.56
4 1 -20 78.11 21.38
-4 -1 -20 68.12 21.24
-1 4 -19 101.37 20.78
-4 -1 -19 90.69 16.99
4 1 -19 92.12 20.5
-4 -1 -19 86.19 20.35
-1 4 -18 113.32 20.55
-4 -1 -18 152.09 21.35
4 1 -18 139.64 20.19
-4 -1 -18 98.02 16.81
-1 4 -18 137.64 16.25
-1 4 -17 30.13 17.44
-4 -1 -17 9.27 17.34
4 1 -17 9.5 17.71
-4 -1 -17 25.15 14.48
-1 4 -17 -2.99 13.15
-4 -1 -16 31.02 17.29
-1 4 -16 19.88 16.77
4 1 -16 28.59 16.29
-4 -1 -16 16.6 13.68
-1 4 -16 19.72 12.95
-4 -1 -15 202.76 20.17
-1 4 -15 187.41 20.15
4 1 -15 226.46 19.13
-4 -1 -15 206.48 17.79
-1 4 -15 216.77 16.35
-4 -1 -14 42.99 15.31
-1 4 -14 23.89 14.69
4 1 -14 34.3 14.39
-4 -1 -14 37.71 12.87
-1 4 -14 31.73 11.24
-1 4 -13 70.96 14.77
-4 -1 -13 48.63 14.69
-1 4 -13 36.53 11.35
4 1 -13 61.53 13.48
-4 -1 -13 61.36 12.9
1 4 12 53.55 12.77
-4 -1 -12 43.13 13.93
-1 4 -12 20.6 13.19
-1 4 -12 44.85 10.42
4 1 -12 27.06 13.05
-4 -1 -12 44.62 12.74
-4 -1 -11 146.69 14.04
1 4 11 127.82 13.54
-1 4 -11 137.1 12.32
-4 -1 -11 130.94 15.16
4 1 -11 130.59 14.23
-1 4 -11 143.27 15.41
-4 -1 -10 452.82 21.82
-1 4 -10 409.2 20.41
-4 -1 -10 420.89 22.66
-4 1 10 425.19 20.57
-1 4 -10 453.41 23.03
4 1 -10 421 21.31
1 4 10 450.63 21.62
1 4 9 309.27 17
-1 4 -9 302.44 18.37
-4 1 9 308.87 16.28
-4 -1 -9 289.78 17.99
4 1 -9 323.15 16.8
-4 -1 -9 301.09 17.08
-4 1 9 322.05 13.07
1 4 9 176.34 13.49
-1 4 -9 319.61 15.81
-4 -1 -8 187.66 14.09
-1 4 -8 186.21 11.93
-1 4 -8 149.3 13.43
-1 4 -8 194.3 11.47
1 4 8 209.6 13.01
-4 1 8 173.27 7.94
-4 -1 -8 187.42 13.11
4 1 -8 157.18 6.46
-4 1 8 179.39 11.8
1 4 8 213.32 13.47
4 1 -8 184.43 11.96
1 4 7 143.72 12.01
-4 1 7 154.15 10.71
-4 -1 -7 157.86 12.59
-4 -1 -7 159.53 11.84
1 4 7 -0.29 2.53
-1 4 -7 163.28 11.23
1 4 7 152.98 11.91
-1 4 -7 169.19 10.74
4 1 -7 159.46 10.41
1 -4 -7 126.81 11.83
4 1 -7 135.08 5.09
-4 1 7 146.97 6.73
-1 4 -6 830.36 30.74
4 1 -6 859.89 29.77
-1 4 -6 878.53 30.56
1 -4 -6 829.6 31.21
-4 -1 -6 823.43 31.32
1 4 6 847.57 31.43
-4 1 6 845.02 30.34
1 4 6 907.37 31.27
-4 -1 -6 896.83 31.41
-4 1 6 843.73 28.21
-1 4 -5 1599.34 57.65
-1 -4 5 1664.38 57.47
4 -1 5 1534.3 55.45
1 -4 -5 1550.35 57.92
-4 -1 -5 1661.82 58.03
-1 4 -5 1570.87 57.39
4 -1 5 1688.93 57.47
-4 -1 -5 1617.72 58.05
1 4 5 1651.2 58.17
1 -4 -4 2028.27 73.07
-4 1 4 2041.98 70.98
4 -1 4 2039.4 72.35
-1 4 -4 2079 72.68
-1 -4 4 2051.53 72.43
-4 -1 -4 2033.4 72.67
-4 -1 -4 2094.14 72.87
-4 -1 -3 1184.48 44.16
-1 -4 3 1253.72 44.29
-1 4 -3 1241.94 44.5
-4 1 3 1215.07 42.67
1 -4 -3 1199.69 44.88
4 -1 3 1200.96 43.89
-4 -1 -3 1225.91 43.99
-4 -1 -2 34.82 7.6
-1 -4 2 34.93 8.62
-1 4 -2 25.01 8.67
-4 1 2 34.64 6.2
-1 4 -2 48.03 9.93
1 -4 -2 32.51 9.87
4 -1 2 18.85 6.97
-4 -1 -2 35.08 7.31
-1 4 -1 176.65 11.91
-1 -4 1 158.68 10.83
1 4 1 138.2 10.3
-4 -1 -1 163.86 9.54
-4 1 1 151.94 9.88
1 -4 -1 162.66 11.87
-1 -4 1 145.8 10.7
-4 -1 -1 153.99 8.74
4 1 -1 139.02 7.13
4 -1 1 125.35 9.37
-4 -1 0 570.9 20.86
-4 1 0 507.25 22.07
1 -4 0 534.46 22.79
-1 -4 0 519.97 22.31
1 4 0 552.25 21.95
-4 1 0 584.94 21.74
-1 -4 0 572.62 22.4
-4 1 0 555.92 22.78
1 -4 0 533.59 23.25
4 1 0 559.33 20.59
4 -1 -1 127.9 12.2
1 -4 1 111.99 11.63
1 4 -1 136.02 8.99
-1 -4 -1 119.14 10.81
4 1 1 93.9 8.34
1 -4 1 134.91 10.75
1 4 -1 130.42 9.19
-4 -1 1 107.41 6.38
-4 1 -1 116.45 9.21
4 -1 -2 34.23 7.69
1 -4 2 15.28 9.55
1 4 -2 27.98 7.28
4 1 2 23.36 7.06
-1 4 2 -0.59 3.37
-1 -4 -2 20.71 9.51
1 4 -2 36.15 7.34
-4 1 -2 30.48 7.93
-4 -1 3 1274.21 16.84
1 -4 3 1285.82 22.16
4 -1 -3 1259.33 17.53
1 4 -3 1226.72 19.42
-1 -4 -3 1231.17 22.02
-1 4 3 1141.5 20.58
4 1 3 1164.71 19.46
-4 1 -3 1150.95 20.48
4 1 3 1285.66 19.7
4 1 4 1963.94 69.13
1 -4 4 1914.06 70.01
1 4 -4 1944.24 68.84
-1 4 4 1948.34 69.63
4 -1 -4 1983.09 67.95
-4 1 -4 1968.88 69.68
4 1 4 1969.34 69.16
-4 -1 4 1941.37 68.11
-4 1 -5 1668.53 61.64
4 1 5 1744.62 61.04
1 4 -5 1681.16 60.44
4 -1 -5 1707.77 59.47
-1 4 5 1640 61.26
-4 -1 5 1752.2 60.01
4 1 5 1707.08 60.84
-4 1 -5 1690.45 61.41
-1 4 6 898.98 33.44
1 4 -6 854.73 32.98
-4 1 -6 891.65 34.26
4 1 6 940.63 33.67
4 -1 -6 866.29 32.01
-4 -1 6 882.83 30.8
1 4 -6 936.76 32.87
-1 4 6 913.46 34.51
-4 1 -6 857.6 34.85
-4 -1 6 827.59 32.64
4 1 6 856.6 33.79
-4 1 -7 194.45 14.52
1 4 -7 169.79 11.4
1 4 -7 152.45 12.79
-4 1 -7 195.95 13.13
-4 -1 7 180.95 8.03
4 -1 -7 175.19 10.11
1 4 -7 178.31 10.53
-4 -1 7 178.4 11.29
4 1 7 193.37 12.83
-1 4 7 170.43 11.35
4 1 7 179.35 10.76
-1 4 7 175.31 13.83
1 4 -8 165.4 12.91
4 1 8 159.94 13
-4 1 -8 175.44 14.59
1 4 -8 164.34 11.21
4 1 8 177.47 10.94
-1 4 8 147.58 14.26
-1 4 8 173.21 11.38
1 4 -8 164.66 10.4
-4 -1 8 155.21 11.63
-4 -1 8 164.43 8.35
-4 1 -8 198.85 13.56
-1 4 9 340.05 16.13
1 4 -9 296.21 15.66
-4 -1 9 317.74 16.29
-4 1 -9 337.26 19.31
1 4 -9 314.26 18.04
4 1 9 325.11 17.4
-4 -1 9 316.82 13.53
1 4 -9 299.95 15.2
-4 1 -9 365.08 18.22
4 1 9 350.43 15.84
-1 4 9 339.07 18.94
-1 4 10 473.09 20.89
-1 -4 -10 471.02 22.94
-4 1 -10 540.61 23.25
1 4 -10 456.49 20.65
1 4 -10 509.73 23.44
-4 -1 10 501.3 21.5
-4 1 -10 474.03 24.11
4 1 10 462.91 20.79
1 4 -10 450.21 20.58
-1 -4 -11 143.97 13.45
1 4 -11 124.05 10.89
1 4 -11 176.26 14.64
-4 1 -11 155.71 15.76
-4 -1 11 125.44 11.91
1 4 -11 127.43 10.93
-4 1 -11 165.29 14
1 4 -12 12.06 12.75
-4 1 -12 51.14 13.92
-4 1 -12 43.32 12.01
1 4 -12 35.87 8.94
-1 -4 -12 38.02 12.07
-1 -4 -13 33.19 12.13
-4 1 -13 57.62 12.81
-4 1 -13 60.91 15.1
1 4 -13 57.14 14.39
1 4 -13 85.05 10.47
-1 -4 -14 32.46 12.46
-4 1 -14 39.97 12.48
1 4 -14 35.48 14.25
-4 1 -14 48.78 15.45
1 4 -14 40.63 10.1
1 4 -15 222.76 15.15
-1 -4 -15 195.6 17.64
-4 1 -15 193.62 17.33
1 4 -15 221.18 19.64
-4 1 -15 209.11 20.24
-1 -4 -16 28.75 13.96
-4 1 -16 2.58 13.68
-4 1 -16 3.18 16.97
1 4 -16 -5.04 16.67
-1 -4 -17 27.65 14.14
-4 1 -17 21.8 14.45
1 4 -17 43.83 17.37
-4 1 -17 9.3 17.92
-1 -4 -18 123.67 17.25
-4 1 -18 134.08 17.3
-4 1 -18 135.93 21.01
1 4 -18 158.61 20.47
-1 -4 -19 96.91 16.98
-4 1 -19 75.04 16.98
-4 1 -19 107.23 21.19
1 4 -19 122.43 20.91
-4 1 -20 85.01 18.07
-4 1 -20 102.51 22.17
1 4 -20 111.99 22.08
-4 1 -21 25.8 17.4
-4 1 -21 73.84 22.26
1 4 -21 62.46 21.89
-4 1 -22 117.85 23.56
1 4 -22 68.46 22.92
-4 1 -22 74.88 18.56
-4 1 -23 81.83 24.32
1 4 -23 62.22 23.58
-4 1 -23 105.69 19.16
1 4 -24 14.61 23.66
-4 1 -24 30.12 23.86
-4 1 -24 -1.83 17.94
-4 1 -25 63.85 25.03
1 4 -25 23.44 25.43
-4 1 -26 28.58 26.14
-4 1 -27 76.76 28.19
-4 1 -28 34.92 28.34
-4 -2 -28 15.04 27.44
-2 4 -28 13.58 28.3
-2 4 -27 2.64 27.45
-4 -2 -27 36.04 26.17
-2 4 -26 19.13 26.48
-4 -2 -26 -22.09 24.9
-4 -2 -25 73.21 20.11
-2 4 -25 -6.15 24.75
-4 -2 -25 15.12 24.57
-4 -2 -24 7.29 23.44
-2 4 -24 21.42 24.77
-4 -2 -24 17.97 19.14
-4 -2 -23 22.22 23.74
-2 4 -23 37.64 23.64
-4 -2 -23 13.69 18.31
-4 -2 -22 20.15 22.16
-2 4 -22 37.86 22
-4 -2 -22 22.78 17.7
-4 -2 -21 187.47 25.23
-4 -2 -21 218.65 21.76
-2 4 -21 219.46 25.64
-4 -2 -20 45.38 20.6
4 2 -20 39.56 20.39
-4 -2 -20 29.72 16.14
-2 4 -20 62.15 20.72
-2 4 -20 57.49 15.79
-2 4 -19 26.28 19.74
-4 -2 -19 0.77 15.35
-2 4 -19 51.44 15.45
-4 -2 -19 12.42 19.16
4 2 -19 -23.2 18.98
4 2 -18 17.86 18.28
-4 -2 -18 30.71 18.96
-4 -2 -18 5.17 14.97
-2 4 -18 11.34 14.74
-2 4 -18 32.86 18.6
4 2 -17 358.13 25.41
-2 4 -17 373.65 26.35
-4 -2 -17 393.72 26.81
-2 4 -17 390.74 23.12
-4 -2 -17 378.68 23.88
4 2 -16 119.84 17.99
-4 -2 -16 119.85 19.19
-4 -2 -16 163.63 17.01
-2 4 -16 114.94 19.47
-2 4 -16 131.61 15.62
4 2 -15 59.75 15.45
-4 -2 -15 35.89 16.8
-4 -2 -15 37.98 14.24
-2 4 -15 30.23 16.6
-2 4 -15 50.79 13.01
-4 -2 -14 91.28 16.32
4 2 -14 85.45 14.78
-4 -2 -14 98.32 14.36
-2 4 -14 74.18 12.86
-2 4 -14 103 16.67
-4 -2 -13 359.4 21.01
4 2 -13 383.4 21.09
-4 -2 -13 327.23 22.44
-2 4 -13 358.04 22.5
2 4 13 353.03 20.34
-2 4 -13 368.75 19.69
2 4 12 115.39 13.32
-2 4 -12 134.46 15.88
-4 -2 -12 129.42 16.28
4 2 -12 99.52 13.82
-2 4 -12 123.26 12.89
-4 -2 -12 109.13 14.18
-4 -2 -11 77.61 12.53
4 2 -11 -2.71 3.35
2 4 11 71.83 11.79
-2 4 -11 78.4 13.71
4 2 -11 98.52 12.17
-2 4 -11 85.14 11.67
-4 -2 -11 93.32 14.24
-2 4 -10 23.01 12.84
4 2 -10 3 3.31
-4 -2 -10 14.33 11.26
-4 -2 -10 32.76 13.04
-2 4 -10 22.37 10.13
4 2 -10 37.14 10.89
2 4 10 29.13 10.95
-2 4 -9 323.72 19.29
2 -4 -9 312.98 17.69
-2 4 -9 290.88 17.06
-4 2 9 306.8 17.33
4 2 -9 321.64 16.88
-4 -2 -9 313.99 19.09
-4 -2 -9 305.99 18.32
-4 2 9 296.32 14.31
4 2 -9 366.92 13.18
2 4 9 329.85 17.63
-2 4 -8 931.44 37.53
-2 4 -8 941.76 36.04
-2 4 -8 915.26 35.99
4 -2 8 915.99 35.32
2 -4 -8 911.87 35.91
4 2 -8 961.21 35.34
2 4 8 923.56 36.35
-4 -2 -8 903.49 37.02
-4 2 8 895.28 35.91
2 4 8 917.62 36.16
2 4 8 937.46 35.49
-4 -2 -8 931.31 36.71
-4 2 8 862.4 33.65
4 2 -8 932.54 32.69
-2 4 -7 5.12 9.51
2 4 7 1.55 10.12
2 -4 -7 10.97 7.88
4 2 -7 29.79 8.4
2 4 7 12.91 10.32
-4 2 7 10.92 9.82
-4 -2 -7 18.72 10.91
-2 4 -7 6.93 10.34
4 2 -7 14.16 3.87
-4 -2 -7 1.44 10.23
2 4 7 16.96 8.28
-4 2 7 8.23 6.06
4 2 -7 10.68 5.39
2 -4 -7 12.04 10.29
-2 4 -6 224.13 12.83
2 -4 -6 255.75 13.93
4 2 -6 205.6 8.72
-2 4 -6 247.58 13.74
4 2 -6 211.16 8.16
-4 -2 -6 240.86 13.85
2 -4 -6 54.65 9.18
4 2 -6 230.1 10.91
2 4 6 237.31 13.76
-4 -2 -6 229.71 14.01
4 -2 5 467.54 12.23
-2 4 -5 472.16 13.21
2 -4 -5 499.55 14.36
-2 -4 5 512.84 12.36
-2 4 -5 522.27 14.37
-4 -2 -5 503.9 14.17
4 2 -5 496.6 10.03
2 4 5 547.91 14.45
-4 -2 -5 499.01 13.94
-4 2 4 1028.22 37.68
2 -4 -4 1021.62 39.37
4 -2 4 1101.36 38.78
-4 -2 -4 1041.35 38.95
4 2 -4 1011.14 37.1
2 4 4 1081.11 39.31
2 4 4 1074.31 39
-4 -2 -4 1082.65 39.35
-2 4 -4 1064.55 39.45
-2 -4 4 1060.66 38.42
-4 -2 -3 1466.73 53.03
2 4 3 1500.68 52.96
-4 2 3 1463.01 51.93
2 -4 -3 1461.1 53.37
4 -2 3 1498.71 52.7
-2 -4 3 1461.98 52.43
-4 -2 -3 1461.32 52.58
-4 -2 -2 1149.47 42.65
-4 -2 -2 1238.97 43.5
4 2 -2 1190.93 41.63
-4 2 2 1180.79 42.72
2 -4 -2 1229.01 44.13
-2 -4 2 1242.14 43.3
4 2 -1 344.71 12.76
-4 -2 -1 325.8 14.04
2 -4 -1 304.13 15.94
-2 -4 1 315.2 14.66
-4 2 1 316.6 14.28
-4 -2 -1 288.95 12.89
2 -4 -1 317.71 17.02
-2 -4 1 320.43 14.28
-4 2 0 791.19 22.64
2 -4 0 792.99 23.94
4 -2 0 779.62 23.24
2 4 0 846.07 22.65
-2 -4 0 799.1 23
4 2 0 808.3 21.34
-4 -2 0 825.66 21.57
2 -4 0 770.29 24.84
-4 2 0 763.93 23.39
-4 2 -1 325.31 11.48
4 -2 -1 313.19 11.53
2 -4 1 313.17 13.1
-4 2 -1 324.05 12.07
2 -4 1 306.43 13.74
4 -2 -1 322.74 12.94
4 2 1 301.22 8.36
-2 -4 -1 331.54 12.31
2 4 -1 320.68 10.25
-4 2 -1 345.58 10.64
4 2 1 355.76 9.76
4 -2 -2 1134.25 40.32
-4 2 -2 1189.24 40.91
2 -4 2 1166.19 41.55
4 2 2 1150.35 39.68
-2 -4 -2 1191.65 41.25
2 4 -2 1155.96 39.91
-4 -2 2 1183.72 38.83
-2 4 2 1214.51 40.51
-4 2 -2 1214.49 40.59
2 4 -2 1175.29 39.93
4 2 2 1225.2 40.22
4 -2 -3 1457.32 51.77
2 -4 3 1463.52 53.48
2 4 -3 1448.1 51.71
-2 4 3 1474.96 52.43
-4 2 -3 1445.47 52.56
-2 4 3 1503.56 52.48
4 2 3 1427.25 52.12
4 2 3 1464.74 51.95
4 -2 -4 949.49 35.33
2 4 -4 948.64 35.31
-2 4 4 979.24 36.06
-2 4 4 1038.72 36.64
4 2 4 979.92 35.91
-4 -2 4 934.01 34.34
-4 2 -4 993.33 36.65
4 2 4 998.39 36.06
4 2 5 417.12 18.45
2 4 -5 418.35 17.55
4 -2 -5 411.12 17.39
4 2 5 444.88 18.94
-4 -2 5 450.87 16.92
-4 2 -5 389.15 18.85
-2 4 5 397.19 19.32
2 4 -6 240.12 11.44
-4 -2 6 222.73 11.58
4 2 6 242.14 13.88
-4 2 -6 220.41 14.87
2 4 -6 225.65 12.68
2 4 -6 213.7 11.97
-4 2 -6 235.01 14.04
4 -2 -6 212.85 11.95
-2 4 6 209.61 14.74
4 2 6 228.29 13.04
-2 4 7 9.01 7.68
-2 -4 -7 25.19 10.34
4 2 7 12.5 9.68
-4 -2 7 20.71 7.47
-4 2 -7 10.5 10.76
2 4 -7 10.39 8.4
2 4 -7 9.74 8.13
2 4 -7 12.89 7.13
-4 2 -7 7.68 9.74
4 -2 -7 1.57 7.89
-2 4 7 -4.88 11.44
-2 4 8 938.08 33.41
-2 -4 -8 959.35 35.41
2 4 -8 954.4 33.03
-4 2 -8 954.71 35.1
4 -2 -8 967.55 32.86
2 4 -8 959.02 32.77
-4 2 -8 941.96 36.17
4 2 8 981.04 34.53
2 4 -8 982.07 34.3
-4 -2 8 957.14 33.2
-4 2 -8 900.72 31.2
4 2 8 938.16 33.44
-2 -4 -9 270.73 16.46
-2 4 9 234.9 13.52
2 4 -9 254.4 13.35
2 4 -9 253.99 12.76
-4 2 -9 227.23 15.68
4 -2 -9 249.82 13.49
2 4 -9 272.14 15.22
4 2 9 251.43 15.44
-4 2 -9 288.53 17.6
-4 -2 9 255.56 13.89
-2 -4 -9 230.78 17.51
-4 2 -9 218.61 10.82
4 2 9 254.38 13.96
4 2 10 22.65 9.42
-4 2 -10 28.13 12.84
-4 -2 10 41.48 9.52
2 4 -10 16.01 8.25
-2 -4 -10 23.3 12.75
2 4 -10 49.22 11.19
-2 -4 -10 19.07 11.27
-4 2 -10 25.02 10.6
2 4 -10 12.05 6.84
-2 4 10 30.39 8.06
-4 -2 11 86.77 10.65
-4 2 -11 74.63 11.97
2 4 -11 51.11 8.35
-4 2 -11 55.04 13.8
2 4 -11 99.48 13.26
-2 -4 -11 81.05 12.84
-2 -4 -11 102.1 15.01
4 2 11 65.47 10.85
2 4 -12 102.84 9.42
-4 2 -12 97.57 13.02
-4 2 -12 124.9 15.45
2 4 -12 107.69 14.59
4 2 12 103.77 11.72
-2 -4 -12 90.53 15.71
-2 -4 -12 101.5 13.43
2 4 -13 349.2 20.87
-4 2 -13 370.15 22.3
-4 2 -13 349.86 20.34
-2 -4 -13 357.12 20.71
2 4 -13 311.85 16.76
-2 -4 -13 328.93 22.28
-4 2 -14 61.81 16.05
2 4 -14 76.34 15.25
-2 -4 -14 59.62 13.27
-2 -4 -14 70.01 16.27
2 4 -14 97 10.93
-4 2 -14 57.41 13.21
-4 2 -15 40.06 16.49
2 4 -15 33.73 15.62
-2 -4 -15 38.34 13.37
-2 -4 -15 71.8 17.43
-4 2 -15 49.85 13.88
-4 2 -16 151.47 20.1
2 4 -16 152.82 18.26
-4 2 -16 136.97 16.65
-2 -4 -16 161.23 17.06
-2 -4 -16 122.98 19.81
-4 2 -17 413.64 23.53
-2 -4 -17 331.01 23.11
2 4 -17 366.62 24.94
-4 2 -17 376.9 26.21
-2 -4 -17 369.85 26.45
-2 -4 -18 14.4 18.72
-2 -4 -18 26.77 15.66
-4 2 -18 0.91 18.36
2 4 -18 31.28 18.48
-4 2 -18 0.72 14.64
-2 -4 -19 -0.95 19.14
-2 -4 -19 31.06 15.81
-4 2 -19 19.11 19.58
2 4 -19 24.8 18.96
-4 2 -19 -5.26 15.32
2 4 -20 72.27 20.92
-2 -4 -20 52.94 16.7
-4 2 -20 38.15 20.92
-4 2 -20 61.25 16.88
2 4 -21 217.12 25.3
-2 -4 -21 233 21.48
-4 2 -21 205.39 25.23
-4 2 -21 204.4 21.16
2 4 -22 6.03 21.83
-2 -4 -22 68.14 18.68
-4 2 -22 18.94 22.18
-4 2 -22 51.95 18.16
2 4 -23 6.34 22.92
-4 2 -23 -8.12 22.88
-4 2 -23 29.6 18.41
-4 2 -24 27.73 24.1
-4 2 -25 28.86 24.78
-4 2 -26 32.58 26.09
-4 2 -27 -8.08 26.85
-4 2 -28 -8.32 27.81
-3 4 -28 30.33 28.58
-3 4 -27 26.73 26.86
-4 -3 -26 7.75 24.67
-3 4 -26 2.59 26.73
-4 -3 -25 18.9 19.82
-4 -3 -25 -18.79 24.14
-3 4 -25 -7.54 25.04
-4 -3 -24 114.62 21.16
-4 -3 -24 102.82 25.38
-3 4 -24 110.23 26.25
-4 -3 -23 66.11 19.32
-4 -3 -23 88.67 23.63
-3 4 -23 51.98 23.78
-4 -3 -22 21.54 17.76
-4 -3 -22 24.69 22.84
-3 4 -22 35.41 22.71
-4 -3 -21 -4.3 21.24
-4 -3 -21 2.59 17.6
-3 4 -21 21.2 21.12
-3 4 -21 26.86 16.65
-4 -3 -20 34.86 20.61
-4 -3 -20 62.27 18.02
-3 4 -20 31.36 20.84
-3 4 -20 57.66 16.49
-4 -3 -19 15.58 19.34
4 3 -19 -8.18 19.22
-4 -3 -19 8.73 15.62
-3 4 -19 5.77 19.68
-3 4 -19 16.95 14.94
-3 4 -18 28.28 19.11
-4 -3 -18 27.11 15.48
-4 -3 -18 40.68 19.84
4 3 -18 11.48 17.89
-3 4 -18 23.37 15.38
-3 4 -17 183.51 22.11
-4 -3 -17 207.59 19.12
4 3 -17 181.79 20.41
-4 -3 -17 194.53 21.67
-3 4 -17 186.99 18.16
-3 4 -16 121.95 19
-4 -3 -16 54.36 15.36
4 3 -16 87.98 17.24
-4 -3 -16 58.7 18.78
-3 4 -16 76.07 15.11
-3 4 -15 130.34 18.49
-3 4 -15 94.97 14.4
-4 -3 -15 99.34 15.82
-4 -3 -15 97.42 17.89
4 3 -15 84.08 15.75
-3 4 -14 88.6 16.72
-3 4 -14 64.6 13
3 4 14 61.47 13.4
-4 -3 -14 77.63 14.32
4 3 -14 91.07 14.68
-4 -3 -14 73.23 16.85
-3 4 -13 69.13 15.94
3 4 13 51.59 12.42
-3 4 -13 64.28 12.36
-4 -3 -13 66.78 15.92
4 3 -13 70.88 13.35
-4 -3 -13 53.16 13.49
-4 -3 -12 47.24 12.41
3 -4 -12 -3.27 11.51
-3 4 -12 48.53 14.86
3 4 12 40.55 11.86
4 3 -12 53.7 12.2
-4 -3 -12 27.51 14.39
-3 4 -12 52.62 12.1
-4 -3 -11 108.01 14.84
-3 4 -11 86.18 14.55
-4 -3 -11 80.28 12.96
-3 4 -11 57.85 12.13
3 4 11 99.36 12.56
4 3 -11 95.57 12.37
3 -4 -11 102.22 12.29
-3 4 -10 253.38 17.76
3 4 10 225.49 15.01
-3 4 -10 212.49 15.19
3 -4 -10 255.31 15.06
-4 -3 -10 230.02 17.39
4 3 -10 266.03 15.21
-4 3 10 207.7 12.06
-4 -3 -10 242.88 15.95
4 3 -10 203.64 10.97
-4 3 9 77.22 11.33
-4 -3 -9 66.81 13.11
4 3 -9 65.01 10.27
-3 4 -9 63.76 13.34
-4 -3 -9 63.4 11.86
3 4 9 61.76 10.87
3 -4 -9 56.31 10.93
4 3 -9 57.72 6.27
-3 4 -9 52.12 10.68
-4 3 9 62.22 7.78
-3 4 -8 6.51 9.86
3 -4 -8 5.98 10.36
4 3 -8 20.03 5.43
3 4 8 8.79 9.88
3 -4 -8 18.26 7.91
3 4 8 18.4 10.36
4 3 -8 -3.84 8.63
-3 4 -8 19.28 12.37
4 3 -8 -0.14 6.35
-4 3 8 2.98 6.76
-4 -3 -8 4.47 10.54
-4 -3 -8 18.08 11.94
-4 3 8 11.89 10.37
4 3 -7 478.98 10.43
-3 4 -7 489.53 16.29
4 3 -7 539.52 9.79
3 -4 -7 503.94 15.41
-4 -3 -7 491.87 16.3
-3 4 -7 542.95 16.08
3 4 7 478.37 15.44
4 3 -7 467.94 12.78
-4 -3 -7 465.27 16.79
4 3 -6 385.33 11.15
-3 4 -6 402.8 16.2
4 3 -6 369.85 10.49
3 -4 -6 400.65 15.76
3 4 6 363.32 14.48
-4 -3 -6 375.41 15.84
-4 -3 -6 387.03 16.35
4 3 -6 378.94 12.61
3 4 6 389.38 15.51
-3 4 -6 390.5 15.5
-4 -3 -5 265.02 15.11
3 4 5 263.57 13.83
-3 -4 5 251.24 12.81
4 3 -5 260.79 10.98
-4 3 5 247.23 12.98
3 -4 -5 256.42 14.73
-4 -3 -5 247.37 15.07
3 4 5 248.22 14.59
4 3 -5 279.88 11.96
-3 4 -5 278.91 14.65
3 -4 -5 280.04 13.27
-3 4 -4 87.79 9.97
-3 -4 4 91.83 8.61
4 3 -4 101.51 6.61
3 4 4 90.64 10.23
4 3 -4 129.21 7.04
-4 -3 -4 90.7 10.04
3 -4 -4 94.33 8.72
-4 3 4 106.02 8.92
3 -4 -4 94.68 10.42
3 4 4 105.34 9.64
-4 -3 -4 95.25 10.5
3 -4 -3 394.74 18.88
-4 3 3 427.08 17.43
-3 -4 3 423.4 17.2
3 4 3 421.68 18.14
4 3 -3 405.34 15.29
-4 -3 -3 409.89 17.98
3 4 3 387.07 17.9
-4 -3 -3 426.07 18.26
3 -4 -3 420.03 17.34
-3 4 -2 164.96 11.18
-4 3 2 173.51 10.57
-3 -4 2 184.19 10.35
3 -4 -2 168.36 12.26
3 4 2 164.25 10.55
3 4 2 182.7 10.86
-4 -3 -2 184.02 11.14
4 -3 1 102.02 10.68
3 -4 -1 118.42 10.68
-3 4 -1 -0.46 2.14
-4 3 1 125.63 8.73
-3 -4 1 123.27 8.52
4 3 -1 119.61 6.23
3 -4 -1 118.16 11.88
-3 -4 1 125.49 7.31
3 -4 0 254.42 14.88
-4 3 0 271.24 13.27
-3 4 0 98.9 11.22
4 -3 0 229.44 13.89
-3 -4 0 253.95 12.35
4 3 0 256.87 10.35
4 3 0 225.64 8.87
-3 4 0 238.85 10.08
4 -3 0 257.33 9.39
-4 3 0 251.16 11.93
4 -3 0 278.63 13.5
3 -4 0 251.96 13.8
-4 3 -1 151.29 11.48
4 -3 -1 163.68 12.67
4 -3 -1 152.15 11.22
-4 3 -1 153.55 10.98
3 -4 1 146.96 12.23
-3 4 1 169.93 10.54
-3 -4 -1 163.66 11.32
3 4 -1 165.01 9.21
-4 -3 1 153.41 9.21
4 3 1 147.6 9.32
4 3 1 151.8 8.56
-3 4 1 163.82 9.62
4 -3 -1 162.89 8.59
4 3 2 167.01 9.7
4 -3 -2 173.07 11.73
3 -4 2 184.8 13.4
-3 4 2 178.19 10.87
-4 3 -2 46.42 9.37
-4 -3 2 183.82 8.95
3 4 -2 171.62 9.3
4 3 2 174.08 10.12
4 -3 -2 189.67 13.43
-3 4 2 208.31 10.6
-4 3 -2 199.86 11.06
4 -3 -2 192.71 9.59
4 3 3 398.02 11.13
-3 4 3 450.19 12.39
4 -3 -3 446.37 11
3 -4 3 401.06 14.53
4 -3 -3 430.94 12.19
-4 -3 3 407.13 8.76
3 4 -3 444.92 9.96
-3 4 3 406.05 11.92
-4 3 -3 439.04 12.87
4 3 3 430.07 11.67
3 4 -3 408.33 9.73
4 3 4 100.96 9.81
-4 3 -4 101.84 10.25
-4 -3 4 97.97 6.72
-4 3 -4 119.63 10.35
4 -3 -4 100.62 10.2
4 -3 -4 100.54 8.63
-3 4 4 102.53 10.59
3 4 -4 110.53 8.27
-3 4 4 106.95 9.76
4 3 4 99.18 9.27
4 -3 -5 285.33 13.6
4 -3 -5 270.5 14.27
3 4 -5 268.43 12.74
-3 4 5 271.31 14.11
3 4 -5 274.16 13.17
4 3 5 263.35 14.56
-4 3 -5 289.49 15.1
4 3 5 281.54 14.11
3 4 -6 374.73 15.48
-4 3 -6 364.53 17.79
4 -3 -6 397.04 16.73
4 3 6 375.65 17.57
3 4 -6 395.04 16.33
-4 3 -6 332.09 12.81
4 -3 -6 285.19 15.25
-3 -4 -6 367.97 18.44
4 3 6 390.81 16.85
-3 -4 -7 512.32 17.29
3 4 -7 506.68 13.81
4 3 7 501.18 15.29
-3 -4 -7 536.96 16.69
4 3 7 540.61 14.52
3 4 -7 534.34 12.35
-4 3 -7 496.1 17.53
-4 3 -7 581.02 16.24
4 -3 -7 509.2 13.86
-4 3 -7 541.35 8.49
3 4 -7 582.19 11.83
4 -3 -8 9.24 9.14
4 3 8 20.11 10.12
3 4 -8 -3.02 8.59
-4 -3 8 8.27 8.22
-4 3 -8 10.43 12.04
3 4 -8 16.75 7.68
4 3 8 7.57 9.62
-4 3 -8 28.93 4.12
4 -3 -8 2.85 5.6
-3 4 8 12.21 7.54
-3 -4 -8 13.85 12.13
3 4 -8 15.22 6.69
-4 3 -8 9.8 10.3
-3 4 8 8.53 7.68
-3 -4 -8 0.82 10.54
4 -3 -9 53.89 9.96
-3 -4 -9 60.01 13.01
3 4 -9 43.62 9.53
-4 -3 9 67.58 9.31
-4 3 -9 59.71 13.29
3 4 -9 64.18 8.47
3 4 -9 71.6 7.43
-4 3 -9 56.87 11.27
-3 4 9 53.97 8.71
-3 -4 -9 54.15 11.79
4 3 9 66.16 10.64
-3 -4 -10 259.42 18.21
-4 3 -10 246.48 17.99
-4 3 -10 265.64 16.21
3 4 -10 253.4 12.44
4 -3 -10 254.92 14.45
-3 4 10 228.92 13.28
-3 -4 -10 238.67 16.61
-4 -3 10 235.93 13.94
3 4 -10 219.46 15.25
4 3 10 237.1 14.89
-3 -4 -11 76.53 14.86
-3 4 11 84.5 9.3
3 4 -11 68.75 12.29
-4 3 -11 98.92 12.7
3 4 -11 74.11 7.91
-4 3 -11 75.47 14.51
4 -3 -11 51.82 9.64
-3 -4 -11 96.81 13.06
4 3 11 71.15 10.93
4 3 12 15.85 10.52
3 4 -12 14.98 7.11
-4 3 -12 15.42 11.61
-3 -4 -12 41.14 14.83
4 -3 -12 -5.31 10.03
-3 -4 -12 16.84 11.84
-4 3 -12 28.93 14.32
3 4 -12 30.02 12.39
4 3 13 27.07 11.46
-3 -4 -13 59.11 15.3
-3 -4 -13 71 13.84
3 4 -13 46.19 13.8
-4 3 -13 70.57 15.8
-4 3 -13 63.82 12.91
-3 -4 -14 61.27 16.2
-3 -4 -14 64.2 13.62
-4 3 -14 79.44 16.41
3 4 -14 74.12 14.77
-4 3 -14 67.96 13.91
-3 -4 -15 66.12 17.2
-3 -4 -15 81.38 14.66
-4 3 -15 84.73 17.28
3 4 -15 75.83 16.03
-4 3 -15 63.07 14.86
-3 -4 -16 52.41 18.17
-3 -4 -16 64.67 15.07
3 4 -16 93.28 17.72
-4 3 -16 65.81 18.36
-4 3 -16 71.59 15.41
-3 -4 -17 192.57 22.12
-3 -4 -17 194.01 18.97
-4 3 -17 201.78 22.1
3 4 -17 195.01 20.67
-4 3 -17 179.39 18.56
-4 3 -18 5.51 18.84
-3 -4 -18 12.01 15.09
-4 3 -18 24.11 15.16
3 4 -18 18.76 17.63
-3 -4 -18 21.97 18.76
-4 3 -19 31.99 19.9
-3 -4 -19 34.58 16.07
-4 3 -19 37.77 15.29
3 4 -19 5.82 18.79
-3 -4 -19 26.02 19.11
-4 3 -20 16.29 20.48
-3 -4 -20 28.76 17.01
-4 3 -20 70.1 17.13
-3 -4 -20 38.43 21.04
3 4 -20 77.72 20.75
-4 3 -21 20.27 21.55
-3 -4 -21 24 17.19
-4 3 -21 5.75 16.61
-3 -4 -21 12.7 21.9
-4 3 -22 6.68 21.57
-3 -4 -22 47.09 18.42
-4 3 -22 17.94 17.3
-4 3 -23 85.61 24.22
-4 3 -23 63.45 18.89
-3 -4 -23 77.94 18.96
-3 -4 -24 120.13 20.93
-4 3 -24 73.34 25.54
-4 3 -25 46.74 25.45
-4 3 -26 32.65 26.2
-4 3 -27 4.05 26.64
4 -4 0 1161.1 26.26
-4 4 0 1149 24.91
4 -4 0 1147.33 27.51
-4 -4 0 1174.4 24.48
4 4 0 1138.24 23.54
-4 4 0 1174.63 22.65
4 4 1 41.36 6.66
4 -4 1 30.99 10.62
-4 4 -1 47.43 7.94
4 -4 -1 47.96 10.34
-4 4 1 35.27 8.61
4 -4 -1 39.98 6.18
-4 4 -1 46.51 5.34
-4 -4 1 50.54 8.06
-4 -4 1 35 5.73
-4 4 -1 0.58 3.51
4 -4 -1 34.5 11.41
4 4 1 35.97 7.44
4 4 2 36 7.33
-4 4 -2 51.26 4.25
-4 4 -2 -0.27 3.52
4 -4 2 52.09 11.36
4 -4 -2 48.55 10.38
-4 4 2 49.65 8.49
4 -4 -2 26.3 6.46
-4 -4 2 53.13 7.5
-4 4 -2 -0.61 2.75
4 -4 -2 30.07 11.34
4 4 2 45.31 7.53
-4 4 -3 267.67 9.49
-4 -4 3 278.92 12.16
4 -4 -3 279.19 14.56
-4 4 3 283.34 13.25
4 4 -3 276.1 11.41
4 4 3 281.52 13.13
4 -4 -3 343.52 12.86
4 4 -3 261.75 10.97
4 4 3 272.82 13.05
4 4 4 166.46 11.13
-4 -4 -4 160.52 12.55
-4 -4 4 149.26 9.46
4 -4 -4 160.59 12.64
-4 4 4 160.69 11.2
4 4 -4 186.38 9.15
4 4 4 177.94 11.47
4 4 -4 159.49 8.82
-4 4 -4 146.11 11.59
4 -4 -4 145.32 10.32
4 4 -5 17.55 7.01
4 4 5 10.84 9.05
4 4 5 29.35 8.6
-4 4 -5 29.2 9.53
-4 -4 5 20.53 7.01
4 4 -5 19.41 6.37
-4 4 5 19.13 8.28
-4 -4 -5 20.88 9.78
4 -4 -5 11.72 9.9
4 -4 -5 20.64 7.64
-4 -4 -6 18.12 10.58
4 4 6 31.84 9.66
4 4 -6 18.46 8.08
-4 4 -6 21.97 9.86
4 4 6 26.83 8.64
4 4 -6 31.42 6.9
4 -4 -6 25.37 9.87
-4 4 6 22.94 8.31
-4 -4 -6 45.35 10.8
4 -4 -6 27.11 7.43
4 -4 -7 868.01 31.14
-4 -4 -7 889.94 32.44
4 4 7 953.86 31.3
4 4 7 871.79 31.44
4 4 -7 929.74 30.16
-4 -4 -7 847.66 32.5
-4 4 -7 895.32 32.33
4 4 -7 846.1 28.81
4 4 -7 880.28 28.54
-4 4 -7 947.96 32.3
4 -4 -8 2908.02 103.71
4 4 -8 2971.11 102.02
4 4 8 2968.25 104.23
4 4 -8 2969.71 103.26
-4 -4 -8 2912.73 105.2
-4 4 -8 2939.48 104.71
4 4 -8 2882.62 101.81
-4 -4 -8 2974.81 105.03
4 4 9 610.45 25.64
-4 4 -9 647.11 26.71
4 4 -9 606.53 22.58
4 -4 -9 583.35 25.28
-4 4 -9 561.32 27.86
-4 4 9 560.14 23.77
-4 -4 -9 617 26.94
-4 -4 -9 586.68 27.39
4 4 -9 529.35 24.46
4 -4 -10 112.94 12.18
-4 4 -10 126.09 13.05
-4 4 -10 91.56 14.63
4 4 -10 120.99 8.14
-4 -4 -10 80.57 14.78
4 4 -10 80.31 11.08
-4 -4 -10 140.6 13.61
-4 4 10 120.78 9.77
4 4 10 126.19 12.38
-4 4 -11 173.05 17.12
4 4 11 191.7 14.08
-4 -4 -11 158.54 16.67
-4 4 -11 172.14 14.97
4 4 -11 184.2 14.07
-4 -4 -11 183.94 15.95
4 -4 -11 176.69 13.28
-4 4 -12 113.41 16.19
4 4 12 101.78 12.85
-4 -4 -12 141.98 16.38
-4 4 -12 122.07 13.48
4 4 -12 134.12 14.03
-4 -4 -12 110.15 14.45
4 -4 -12 83.09 11.38
-4 4 -13 21.01 15.07
4 4 13 52.03 12.06
4 4 -13 59.16 13.3
-4 -4 -13 39.96 12.95
-4 4 -13 61.2 12.75
-4 -4 -13 28.68 14.9
4 4 14 5.57 11.9
-4 4 -14 28.78 15.8
4 4 -14 30.93 14.22
-4 -4 -14 1.28 13.68
-4 4 -14 29.62 12.62
-4 -4 -14 20.52 16
4 4 15 192.68 17.27
-4 4 -15 228.39 18.25
-4 -4 -15 164.23 18.03
-4 4 -15 170.45 20.72
4 4 -15 214.53 18.99
-4 -4 -15 233.95 21.1
-4 -4 -16 820.35 38.64
-4 4 -16 870.24 38.1
4 4 -16 889.72 38.9
-4 -4 -16 852.81 40.69
-4 4 -16 839.59 40.63
-4 4 -17 68.32 15.85
-4 -4 -17 36.53 15.58
-4 4 -17 39.26 19.32
4 4 -17 9.24 16.88
-4 -4 -17 42.3 18.58
-4 4 -18 14.96 15.29
-4 -4 -18 -7.82 16.25
-4 4 -18 34.65 19.86
-4 -4 -18 8.39 18.7
-4 4 -19 -7.77 15.57
-4 -4 -19 -20.43 16.05
-4 -4 -19 10.76 19.49
-4 4 -19 19.72 20.22
-4 -4 -20 47.22 21.95
-4 -4 -20 33.24 17.72
-4 4 -20 60.08 22.65
-4 4 -20 37.75 16.78
-4 -4 -21 -18.26 21.82
-4 -4 -21 16.85 17.51
-4 4 -21 12.99 22.04
-4 4 -21 -0.83 16.59
-4 -4 -22 70.54 23.42
-4 -4 -22 35.03 18.62
-4 4 -22 11.32 22.56
-4 4 -22 46.35 17.89
-4 -4 -23 103.52 24.3
-4 -4 -23 29.61 19.54
-4 4 -23 103.51 25.12
-4 4 -23 65.85 18.94
-4 4 -24 92.08 25.36
-4 -4 -24 55.02 20.41
-4 4 -25 47.35 25.98
-4 -4 -25 52.43 20.45
-4 4 -26 15.82 26.91
-4 4 -27 -4.06 26.55
0 -5 0 -6.37 9.93
-5 0 0 3.05 5.84
0 5 0 3.51 8.62
5 0 0 10.16 5.51
0 -5 0 5.55 10.19
-5 0 0 3.45 6.78
0 -5 1 153.12 12.16
5 0 1 165.46 9.05
0 -5 -1 151.9 12.04
0 5 -1 147.75 10.94
0 5 -1 132.45 11.76
0 -5 1 136.43 12.41
-5 0 -1 170.21 9.71
-5 0 1 168.17 8.39
0 -5 -2 593.28 25.39
0 5 -2 622.1 24.42
0 -5 2 615.71 25.02
-5 0 2 621.18 22.26
0 5 -2 643.31 24.86
5 0 -2 625.28 23.06
-5 0 -2 625.46 23.91
-5 0 2 581.81 21.94
5 0 2 560.65 23.25
-5 0 -3 585.98 23.72
0 -5 3 575.31 24.85
-5 0 3 576.76 21.33
0 5 -3 586.13 24.03
0 -5 -3 565.98 25.12
-5 0 -3 607.93 23.9
5 0 3 656.45 23.51
-5 0 3 604.24 21.22
0 5 -3 591.02 24.45
0 -5 4 110.45 12.03
0 5 -4 110.46 10.16
-5 0 -4 113.34 10.28
-5 0 -4 98.26 10.43
5 0 4 111.73 9.3
0 -5 -4 109.39 12.11
-5 0 -5 30.05 10.24
0 -5 5 36.55 11.05
0 5 -5 34.46 8.72
0 -5 -5 16.98 11.04
-5 0 -5 4.55 9.48
-5 0 5 59.97 8.35
5 0 5 5.13 7.76
0 5 6 0.32 10.59
-5 0 -6 1.71 10.05
-5 0 6 37.09 8.45
0 -5 -6 5.77 11.21
0 5 6 0.89 2.08
-5 0 -6 18.35 10.55
0 5 -6 13.41 8.5
5 0 -6 5.84 4.5
-5 0 6 9.76 3.47
5 0 6 5.89 7.99
-5 0 7 3093.21 88.5
-5 0 -7 3017.53 90.42
0 5 7 3083.44 90.26
0 5 -7 3064.01 88.97
5 0 7 3063.49 89.15
5 0 -7 2974.28 86.38
0 5 -7 2990.01 88.95
0 -5 -7 3029.5 90.21
5 0 7 3014.78 87.28
0 5 7 2954.66 89.79
-5 0 -7 3178.7 90.52
-5 0 7 2934.22 86.17
-5 0 -8 7.6 11.4
-5 0 8 13.58 8.93
0 5 -8 23.48 11.31
0 5 -8 18.77 7.99
0 5 8 14.04 11.06
5 0 8 21.21 6.81
5 0 -8 8.1 5.79
-5 0 8 3.74 4.44
-5 0 -8 10.72 10.85
0 5 8 -2.3 7.53
0 5 -8 11.4 8.13
0 5 -9 22.53 11.57
0 5 -9 18.05 7.95
-5 0 -9 16.92 11.25
0 5 9 13.31 11.43
5 0 9 9.87 7.39
0 5 -9 22.07 8.33
-5 0 9 20.57 9.18
-5 0 -9 18.3 12.23
0 5 -10 326.73 16.15
0 5 -10 303.71 18.57
-5 0 -10 296.31 19.11
-5 0 10 268.22 16.14
-5 0 -10 294.93 18.03
0 5 -10 287.13 15.29
0 5 10 333.27 18.38
-5 0 -11 342.48 19.61
-5 0 11 354.38 18.04
-5 0 -11 354.35 21.21
0 5 -11 383.96 20.81
0 5 11 317.68 19.78
0 5 -11 313.85 17.26
-5 0 -12 11.39 11.73
-5 0 -12 11.63 13.2
0 5 -12 3.34 9.8
0 5 -12 29.74 13.23
0 5 12 10.98 12.83
0 5 -13 -7.35 13.58
-5 0 -13 4.63 14.04
-5 0 -13 11.55 12.39
0 5 -13 -2.24 10.37
0 5 -14 84.58 16.52
-5 0 -14 84.45 16.12
0 5 -14 61.06 11.85
-5 0 -14 66.25 13.82
-5 0 -15 380.48 25.28
0 5 -15 373.57 24.6
-5 0 -15 402.3 22.98
0 5 -15 380.2 20.75
-5 0 -16 53.36 17.55
0 5 -16 55.51 17.53
-5 0 -16 42.55 14.41
0 5 -16 55.19 12.67
0 5 -17 10.49 17.85
-5 0 -17 -2.57 17.25
-5 0 -17 15.28 14.6
0 5 -18 282.27 24.61
-5 0 -18 269.84 24.48
-5 0 -18 302.6 22.32
-5 0 -19 188.84 22.82
0 5 -19 192.58 23.55
-5 0 -19 137.96 19.1
0 5 -20 28.62 20.46
-5 0 -20 -15.04 16.39
-5 0 -20 17.27 20.26
0 5 -21 55 21.77
-5 0 -21 54.6 18.13
-5 0 -21 88.35 22.66
0 5 -22 10.54 21.76
-5 0 -22 1.79 17.43
-5 0 -22 64.74 22.02
0 5 -23 57.61 23.95
-5 0 -23 66.58 19.38
-5 0 -23 102.89 24.37
-5 0 -24 14.34 19.15
0 5 -24 6.91 23.87
-5 0 -24 -14.61 23.61
-5 0 -25 23.58 19.32
0 5 -25 -5.97 24.78
-5 0 -25 -2.53 24.7
-5 0 -26 28.95 25.88
0 5 -26 42.17 27.18
-5 0 -27 24.62 26.63
-1 5 -28 -41.63 29.14
-1 5 -27 32.58 28.14
-5 -1 -27 53.03 27.52
-5 -1 -26 18.43 20.18
-1 5 -26 44.11 27.11
-5 -1 -26 71.15 26.57
-5 -1 -25 25.73 19.6
-5 -1 -25 57.57 25.55
-1 5 -25 25.61 25.53
-5 -1 -24 65 19.72
-5 -1 -24 14.68 23.91
-1 5 -24 38.86 24.33
-5 -1 -23 47.96 23.51
-5 -1 -23 57.52 19.21
-1 5 -23 77.63 24.38
-5 -1 -22 76.07 22.98
-5 -1 -22 67.45 19.28
-1 5 -22 74.02 23.14
-5 -1 -21 42.75 22.02
-5 -1 -21 43.31 17.87
-1 5 -21 78.05 22.61
-5 -1 -20 197.83 24.04
-5 -1 -20 207.55 21.13
-1 5 -20 163.29 23.67
-5 -1 -19 66.4 20.77
-1 5 -19 88.25 20.91
-5 -1 -19 70.44 16.87
-5 -1 -18 142.25 21.1
5 1 -18 126.05 20.15
-1 5 -18 126.86 21.29
-1 5 -18 136.44 16.94
-5 -1 -18 141.82 18.48
5 1 -17 22.75 17.76
-1 5 -17 54.12 18.6
-5 -1 -17 52.66 18.22
-1 5 -17 38.39 13.92
-5 -1 -17 65.49 15.45
5 1 -16 268.06 21.64
-1 5 -16 301.88 22.99
-5 -1 -16 284.52 23.35
-5 -1 -16 274.92 21.08
-1 5 -16 290.3 19.17
5 1 -15 68.68 15.96
-1 5 -15 47.23 16.86
-5 -1 -15 48.67 16.99
-1 5 -15 30.44 12.54
-5 -1 -15 50.19 14.4
5 1 -14 130.88 16.22
-5 -1 -14 134.59 18.08
-1 5 -14 114.27 17.19
-1 5 -14 128.77 13.66
-5 -1 -14 128.87 15.66
-1 5 -13 124.73 13.08
-5 -1 -13 116.21 16.39
-1 5 -13 136.66 17.12
5 1 -13 139.71 15.2
1 5 13 137.09 15.37
-5 -1 -13 125.95 14.83
-5 -1 -12 26.94 11.95
-1 5 -12 14.01 10.95
5 1 -12 29.49 12.44
1 5 12 24.97 12.15
-1 5 -12 28.46 13.16
-5 -1 -12 14.62 13.93
-5 -1 -11 124.22 14.4
-5 -1 -11 130.01 15.61
-1 5 -11 122.12 15.35
5 1 -11 135.48 13.76
1 5 11 135.07 13.92
-1 5 -11 111.58 11.97
1 5 10 295.52 17.72
-1 5 -10 286.84 16.31
-1 5 -10 257.95 18.67
-5 -1 -10 286.84 17.56
-5 1 10 291.15 16.41
-5 -1 -10 301.61 18.91
-1 5 -9 563.42 26.21
-1 5 -9 538.14 23.95
1 -5 -9 528.54 25.26
-5 -1 -9 526.59 25.18
-5 1 9 560.94 23.93
-5 -1 -9 541.03 25.96
1 5 9 593.05 25.42
-1 5 -9 579.9 24.38
-1 5 -8 1477.84 21.13
1 -5 -8 1438.89 22.98
1 5 8 1498.52 23.37
-5 1 8 1417.51 20.11
-5 -1 -8 1470.99 24.4
-5 1 8 1386.74 13.55
-5 -1 -8 1476.69 23.48
-1 5 -8 1459.73 21.4
1 5 8 1455.32 22.56
1 5 7 1072.99 38.7
-5 -1 -7 1026.88 38.82
-5 1 7 1018.51 37.31
-1 5 -7 1033.7 37.87
5 -1 7 1067.86 35.29
1 -5 -7 1000.56 38.51
-5 1 7 1016.52 34.99
-5 -1 -7 1098.26 38.75
-1 5 -7 1076.26 37.88
5 -1 7 1090.89 37.55
1 5 7 1065.55 38.62
-5 -1 -6 717.22 27.75
1 5 6 673.55 26.78
-5 1 6 629.51 24.07
5 -1 6 695.8 24.16
1 -5 -6 658.42 28
-5 1 6 635.39 26.34
1 5 6 653.97 27.7
-1 5 -6 668.73 26.99
5 -1 6 670.36 26.48
-1 -5 6 652.7 27.1
-1 5 -6 648.03 27.18
-5 -1 -6 641.65 27.64
-5 -1 -5 1437.61 53.3
1 -5 -5 1428.34 53.88
-5 -1 -5 1461.29 53.44
5 -1 5 1449.4 52.7
-1 -5 5 1461.88 53.15
-1 5 -5 1492.37 53.25
-5 -1 -4 105.52 10.74
-5 -1 -4 119.63 10.27
-1 5 -4 137.44 11.1
-1 -5 4 104.15 11.15
-5 1 4 101.44 7.05
5 -1 4 116.19 9.41
1 -5 -4 102.71 12.3
-5 -1 -3 376.7 16.79
-1 5 -3 374.46 17.38
-1 -5 3 360.58 17.48
-5 1 3 363.34 14.58
1 -5 -3 346.31 18.07
-5 -1 -3 339.64 16.36
5 -1 3 395.76 16.28
-1 5 -3 382.51 17.99
-5 -1 -2 208.19 11.44
-5 1 2 200.34 9.88
1 -5 -2 210.96 13.62
-1 -5 2 185.63 12.73
-1 5 -2 195.89 12.43
5 -1 2 210.46 10.72
5 1 -2 189.96 8.25
1 5 2 205.19 12.33
-5 -1 -2 189.89 10.65
5 1 -2 189.93 9.02
-1 5 -2 219.2 13.71
-5 -1 -1 689.92 26.08
-5 1 1 694.69 25.82
-1 -5 1 670.62 27.35
-1 5 -1 673.55 27.16
1 -5 -1 676.51 28.05
1 5 1 680.69 26.96
-5 -1 -1 679.34 25.33
5 -1 1 717.34 25.83
-5 1 1 665.86 25.3
1 -5 -1 720.65 28.47
-1 5 -1 704.2 27.76
-1 -5 1 725.13 27.49
5 1 -1 673.86 24.77
-5 -1 0 227.78 11.03
-1 -5 0 240.95 13.79
1 -5 0 231.69 14.61
1 5 0 237.76 12.98
-5 1 0 247.73 12.08
-5 1 0 222.04 11.03
-1 -5 0 214.94 13.81
1 -5 0 227.23 14.98
-5 1 0 216.86 12.39
5 1 0 236.17 10.53
1 5 -1 680.81 26.84
-1 -5 -1 683.85 27.56
5 1 1 674.92 25.66
-5 1 -1 725.01 26.43
1 -5 1 695.2 27.88
1 -5 1 701.02 28.29
5 -1 -1 683.34 26.59
-5 -1 1 687.1 25.06
-5 -1 2 189.93 8.52
1 -5 2 195.55 13.52
-1 -5 -2 196.51 13.61
1 5 -2 217.04 11.63
1 5 -2 195.78 11.42
5 -1 -2 207.31 12.14
5 1 2 194.73 10.65
-5 1 -2 213.34 11.29
5 -1 -3 332.79 10.11
1 -5 3 358.07 14.45
1 5 -3 333.46 11.66
-1 -5 -3 344.37 14.64
1 5 -3 363.16 12.3
-5 1 -3 378.92 12.99
5 1 3 381.84 11.75
-1 -5 -4 124.32 11.85
5 -1 -4 109.22 7.01
1 -5 4 119.06 11.83
1 5 -4 119.13 8.58
-5 1 -4 133.05 10.16
5 1 4 135.63 8.98
-1 5 4 121.95 10.82
-1 5 4 0.26 3.78
-5 -1 4 109.16 6.93
5 1 5 1369.07 50.68
-5 1 -5 1441.5 51.58
-1 -5 -5 1362.85 52.03
-5 1 -5 1381.04 51.63
5 1 5 1414.04 50.82
-5 -1 5 1371.83 49.54
5 -1 -5 1438.85 49.15
1 -5 5 1405.68 52.03
1 5 -5 1402.79 50.45
-1 5 5 1343.31 51.37
1 5 -6 636.05 24.81
5 -1 -6 596.53 23.22
-1 5 6 630.78 26.32
-5 1 -6 640.67 26.79
5 1 6 639.08 25.62
-5 1 -6 670.5 26.43
5 1 6 616.72 25.09
-5 -1 6 598.14 24.08
-5 1 -7 1060.72 42.66
-5 -1 7 1077.86 40.22
5 1 7 1094.73 41.36
1 5 -7 1136.19 40.74
5 -1 -7 1048.9 39.23
1 5 -7 1130.08 40.62
-1 5 7 1118.3 42.24
-5 1 -7 1126.22 42.29
5 1 7 1121.65 41.14
-1 5 7 1080.96 41.07
-5 -1 8 1578.81 57.57
-5 1 -8 1613.42 60.01
1 5 -8 1605.19 59.14
5 1 8 1637.51 58.72
1 5 -8 1624.39 57.82
-5 1 -8 1574.27 59.31
5 -1 -8 1621.62 56.55
-5 -1 8 1562.51 55.4
1 5 -8 1604.53 57.79
5 1 8 1609.2 57.26
-1 5 8 1665.11 59.52
-1 5 8 1600.44 58.27
-1 5 9 554.08 23.36
1 5 -9 547.86 22.87
-5 1 -9 566.72 25.3
5 -1 -9 542.54 21.56
1 5 -9 539.51 22.6
5 1 9 549.36 22.5
-5 1 -9 580.39 26.22
1 5 -9 497.51 24.6
-5 -1 9 549.59 23.15
-1 5 9 548.85 25.35
-5 1 -10 311.8 18.29
1 5 -10 271.12 15.2
1 5 -10 320.9 15.44
5 -1 -10 274.27 13.86
1 5 -10 308.58 18.13
-5 -1 10 274.98 15.72
-5 1 -10 292.24 19.09
-1 5 10 359.39 19.05
5 1 10 315.85 15.25
1 5 -11 115.63 10.93
-5 1 -11 151.44 14.52
5 1 11 122.27 10.95
-5 1 -11 133.38 15.56
1 5 -11 104.75 10.37
1 5 -11 136.94 14.69
-5 1 -12 32.37 14.28
1 5 -12 11.38 13.04
-5 1 -12 18.22 12.32
1 5 -12 5.38 9.15
-5 1 -13 121.31 16.91
1 5 -13 112.86 15.42
-5 1 -13 141.6 15.17
1 5 -13 99.86 11.38
1 5 -14 122.33 17.01
-5 1 -14 119.2 17.52
1 5 -14 152.23 12.93
-5 1 -14 138.13 15.59
1 5 -15 43.92 15.85
-5 1 -15 60.54 16.84
1 5 -15 43.39 11.19
-5 1 -15 43.93 14.3
1 5 -16 293.6 23.04
-5 1 -16 292.42 23.41
-5 1 -16 267.78 20.06
1 5 -17 47.74 18.62
-5 1 -17 29.45 17.89
-5 1 -17 10.77 14.69
-5 1 -18 185.17 21.97
1 5 -18 112.11 20.51
-5 1 -18 118.2 17.62
-5 1 -19 99.23 21.23
1 5 -19 41.42 19.77
-5 1 -19 101.23 17.55
-5 1 -20 183.96 24.82
1 5 -20 231.94 24.8
-5 1 -20 217.58 21.1
-5 1 -21 61.31 22.02
1 5 -21 69.85 22.34
-5 1 -21 61.21 18.56
1 5 -22 65.3 23.29
-5 1 -22 49.62 18.77
-5 1 -22 52.75 23.05
-5 1 -23 55.83 19.16
1 5 -23 82.09 24.13
-5 1 -23 10.52 23.29
-5 1 -24 64 19.72
1 5 -24 56.32 24.45
-5 1 -24 35.35 24.45
-5 1 -25 4.9 19.11
-5 1 -25 30.45 24.82
-5 1 -26 32.83 25.71
-5 1 -27 28.5 27.23
-2 5 -28 34.05 28.22
-2 5 -27 14.56 27.54
-5 -2 -27 8.1 26.37
-5 -2 -26 42.14 26.62
-2 5 -26 79.6 28.06
-5 -2 -26 40.5 20.4
-2 5 -25 -8.73 25.43
-5 -2 -25 3.83 24.25
-5 -2 -25 -13.14 19.68
-2 5 -24 -1.2 23.63
-5 -2 -24 12.31 24.09
-5 -2 -24 7.84 18.64
-2 5 -23 -12.59 23.07
-5 -2 -23 28.38 23.02
-5 -2 -23 21.71 18.53
-2 5 -22 177.23 25.3
-5 -2 -22 93.82 23.97
-5 -2 -22 144.09 20.67
-2 5 -21 104.04 23.27
-5 -2 -21 155.29 20.44
-5 -2 -21 113.84 23.89
-5 -2 -20 53.14 21.39
-5 -2 -20 18.52 16.24
-2 5 -19 18.13 19.53
-5 -2 -19 27.48 16.67
-2 5 -19 42.91 15.79
-5 -2 -19 51.36 20.41
-2 5 -18 382.96 23.3
-5 -2 -18 371.39 24.55
-5 -2 -18 336.11 27.77
-2 5 -18 432.77 28.18
-2 5 -17 66.16 18.47
-5 -2 -17 74.54 16.2
-5 -2 -17 83.85 19.31
5 2 -17 53.9 17.85
-2 5 -17 64.38 14.32
-2 5 -16 74.42 18.82
-5 -2 -16 52.1 15.26
-5 -2 -16 78.83 18.23
5 2 -16 61.29 16.81
-2 5 -16 63.26 14.13
-2 5 -15 93.1 17.88
-5 -2 -15 76.11 17.14
5 2 -15 97.4 17.01
-2 5 -15 58.74 13.74
-5 -2 -15 79.58 15.52
5 2 -14 676.95 31.14
-5 -2 -14 679.27 32.89
-2 5 -14 638.49 32.53
-5 -2 -14 620.25 31.03
-2 5 -14 670.1 30.09
2 5 14 694.39 30.86
-5 -2 -13 45.15 13.13
5 2 -13 51.28 13.45
-5 -2 -13 31.94 15.18
2 5 13 45.3 12.59
-2 5 -13 36.8 12.12
-2 5 -13 33.34 15.33
-2 5 -12 44.85 14.76
-5 -2 -12 40.75 12.93
5 2 -12 36.25 12.66
2 5 12 50.34 12.19
-5 -2 -12 29.53 14.4
2 -5 -12 31.53 12.27
-2 5 -12 27.68 11.64
2 5 11 79.24 12.6
-2 5 -11 88.4 15.01
-5 -2 -11 79.43 13.29
-2 5 -11 89.06 12.18
-5 -2 -11 88.76 14.85
2 -5 -11 98.92 13.13
5 2 -11 112.78 12.99
-2 5 -10 1252.68 49.83
2 5 10 1269.7 48.23
-2 5 -10 1268.61 48.15
2 -5 -10 1237.94 48.23
5 2 -10 1255.31 47.55
-5 -2 -10 1224.6 49.29
-5 -2 -10 1280.84 49.1
-2 5 -9 194.77 15.1
2 -5 -9 192.69 13.39
-2 5 -9 210.36 12.44
5 2 -9 217.99 11.89
-5 2 9 170.87 11.93
-5 -2 -9 169.39 13.72
-5 -2 -9 217.33 13.86
2 5 9 200.11 13.12
2 -5 -8 50.95 11.87
2 5 8 47.61 11.48
2 5 8 30.65 11.12
5 2 -8 81.79 9.93
-5 2 8 46.55 10.33
-2 5 -8 49.4 10.37
5 2 -8 42.62 5.25
-5 -2 -8 60.43 11.86
-5 -2 -8 42.31 11.12
5 2 -8 -6.98 2.07
-5 2 8 37.78 6.4
-2 5 -8 45.13 10.29
-5 -2 -7 63.97 11.88
-5 -2 -7 75.77 12.03
-2 5 -7 66.25 11.05
5 2 -7 102.67 9.15
-5 2 7 80.49 10.61
2 5 7 79.71 11.66
2 -5 -7 75.37 11.8
-2 5 -7 79.57 10.76
5 -2 6 2715.37 94
-2 5 -6 2634.54 94.55
2 -5 -6 2643.23 94.71
-2 5 -6 2637.48 94.47
-2 -5 6 2630.92 93.76
2 5 6 2674.57 94.63
-5 -2 -6 2638.16 94.56
-5 -2 -6 2741.97 94.99
2 5 5 562.22 23.97
5 -2 5 561 22.71
-2 -5 5 568.72 23.22
-2 5 -5 557.98 23.8
2 -5 -5 553.27 24.26
-5 2 5 529.91 21.22
-5 -2 -5 533.75 23.43
-5 -2 -5 562.09 23.95
5 -2 4 255.06 13.03
-5 2 4 243.3 11.72
2 -5 -4 252.75 15.2
-2 -5 4 249.92 13.61
-2 5 -4 248.6 14.53
-5 -2 -4 261.3 14
2 5 4 233.61 13.59
-5 -2 -4 229.97 14.07
-5 -2 -3 357.87 16.33
5 -2 3 367.42 15.27
-5 2 3 317.71 14.25
2 -5 -3 309.93 17.16
-2 5 -3 330.73 17.67
-5 -2 -3 318.42 15.18
-2 -5 3 322.65 16.18
-2 5 -3 321.7 16.5
-5 -2 -2 378.03 16.76
5 2 -2 333.82 14.14
-5 2 2 419.46 16.1
-2 -5 2 402.81 17.43
2 -5 -2 374.77 18.59
-2 5 -2 432.5 19.12
-5 -2 -2 393.21 15.87
-5 -2 -1 176.97 10.51
5 2 -1 186.37 8.94
-5 2 1 187.84 10.9
2 -5 -1 192.59 13.61
-2 -5 1 175.84 12.31
2 5 1 202.07 11.95
-2 -5 1 203.98 11.88
2 -5 -1 216.32 14.98
-2 5 -1 207.05 13.85
-5 -2 -1 175.81 9.25
-5 -2 0 9.41 4.36
-5 2 0 -0.36 6.8
-5 2 0 1.76 8.05
2 -5 0 5.35 9.78
5 2 0 5.35 5.76
2 5 0 23.67 8.38
-2 -5 0 12.94 9.31
-2 -5 0 5.89 8.4
-5 2 0 11.93 9
2 -5 0 1.92 11.35
-5 -2 0 5.83 5.91
-5 2 -1 190.72 11.02
5 -2 -1 190.33 10.64
2 -5 1 167.34 12.83
2 5 -1 178.75 10.1
-2 -5 -1 200.2 12.16
-5 2 -1 170.95 9.52
-5 -2 1 172.17 7.7
5 2 1 174.9 8.77
-5 2 -1 185.06 11.42
2 -5 1 194.85 13.86
5 -2 -1 166.57 11.66
5 -2 -2 379.08 12.15
2 -5 2 380.03 14.94
-5 2 -2 405.75 13.66
5 2 2 326.63 11.11
2 5 -2 362.01 11.72
-2 -5 -2 391.64 14.6
-5 2 -2 325.69 12.15
5 2 2 397.9 10.76
2 5 -2 349.68 11.58
5 -2 -2 394.79 14
5 2 3 345.68 14.75
5 2 3 341.86 14.47
2 -5 3 321.99 17.33
5 -2 -3 325.48 14.54
2 5 -3 301.79 13.98
-2 -5 -3 333.77 17.14
-2 5 3 179.46 13.83
-5 2 -3 359.02 15.65
2 5 -3 344.68 14.71
-2 5 3 329.08 15.54
5 2 4 217.59 12.28
2 -5 4 219.84 15.25
5 -2 -4 235.84 11.9
2 5 -4 236.23 11.92
-2 5 4 214.39 12.78
-2 5 4 228.09 13.29
-2 -5 -4 230.01 14.84
-5 2 -4 228.84 13.49
5 2 4 229.05 12.48
-5 -2 4 210.21 9.69
5 -2 -5 597.06 23.45
2 5 -5 628.06 23.92
-2 5 5 623.77 25.63
-2 5 5 613.74 24.75
5 2 5 601.61 24.36
-5 -2 5 586.15 22.46
5 2 5 586.67 24.51
-5 2 -5 593.68 25.32
-2 5 6 2513.35 90.24
2 5 -6 2580.17 89.01
-5 2 -6 2528.2 90.89
5 -2 -6 2519.81 88.46
-5 2 -6 2619.82 90.45
5 2 6 2550.11 89.59
5 2 6 2504.86 89.56
-5 -2 6 2496.82 88.19
5 2 7 69.13 10.57
-5 2 -7 74.57 12.27
2 5 -7 75.72 9.64
2 5 -7 73.7 9.25
-2 5 7 59.01 12.06
-5 -2 7 69.71 8.38
-5 2 -7 77.58 11.33
5 2 7 67.18 9.33
5 -2 -7 73.26 8.51
2 5 -7 84.08 8.37
-2 5 8 44.26 8.85
-5 -2 8 57.31 8.56
-5 2 -8 49.1 12.27
5 2 8 36.23 10.14
2 5 -8 48.34 9.71
2 5 -8 40.27 8.52
5 -2 -8 48.9 8.28
-5 2 -8 41.46 10.87
-2 5 8 24.15 12.06
5 2 8 48.89 9.45
2 5 -8 46.74 7.67
5 2 9 195.16 12.89
-2 5 9 225.82 16.07
5 -2 -9 238.25 12.14
2 5 -9 186.04 12.3
-5 2 -9 195.48 16.17
-5 2 -9 208.11 14.73
2 5 -9 206.69 11.88
-5 -2 9 185.12 12.38
2 5 -9 192.24 13.8
-2 5 9 201.35 12.86
2 5 -10 1233.8 46.59
-5 2 -10 1321.16 49.04
2 5 -10 1253.29 46.61
5 -2 -10 1301.19 46.27
5 2 10 1229.79 46.85
2 5 -10 1272.78 48.42
-5 2 -10 1229.69 49.84
5 -2 -11 79.92 8.85
2 5 -11 41.96 8.52
-5 2 -11 70.85 12.69
5 2 11 66.62 10.34
-5 2 -11 59.28 14.28
2 5 -11 105.05 12.79
-5 2 -12 22.91 12.13
2 5 -12 22.75 8.47
5 2 12 31.25 9.95
2 5 -12 60.73 12.82
-5 2 -12 37.94 14.45
-5 2 -13 18.9 12.53
2 5 -13 23.75 8.88
5 2 13 30.61 10.8
2 5 -13 22.72 13.6
-5 2 -13 40.47 14.89
-5 2 -14 677.21 31.31
2 5 -14 670.65 31.79
-5 2 -14 635.35 32.4
-5 2 -15 90.55 15.6
-5 2 -15 53.83 17.74
2 5 -15 85.95 16.31
-5 2 -16 65.73 15.59
-5 2 -16 70.42 18.42
2 5 -16 66.08 17.4
-5 2 -17 43.95 15.67
2 5 -17 84.14 17.75
-5 2 -17 73.68 19.08
-5 2 -18 330.39 23.19
2 5 -18 316.42 25.38
-5 2 -18 353.52 26.86
-5 2 -19 11.03 15.97
2 5 -19 19.66 19.35
-5 2 -19 3.91 19.48
-5 2 -20 -1.65 16.34
2 5 -20 41.08 20.88
-5 2 -20 37.97 21.06
-5 2 -21 84.22 18.97
2 5 -21 151.38 23.95
-5 2 -21 125.58 24.15
-5 2 -22 104.52 20.04
-5 2 -22 108.68 24.52
-5 2 -23 34.79 19.25
-5 2 -23 28.41 23.32
-5 2 -24 -6.13 23.6
-5 2 -24 -29.79 19.06
-5 2 -25 -20.34 23.83
-5 2 -25 5.92 19.24
-5 2 -26 68.47 26.07
-5 2 -27 21.77 26.4
-3 5 -27 61.82 28.06
-5 -3 -27 26.78 25.84
-5 -3 -26 53.91 21.22
-5 -3 -26 16.96 24.95
-3 5 -26 42.02 27.45
-5 -3 -25 28.75 20.84
-5 -3 -25 54.42 24.97
-3 5 -25 43.14 26.07
-5 -3 -24 62.8 20.51
-5 -3 -24 68.77 24.59
-3 5 -24 44.87 25.24
-5 -3 -23 11.57 19.06
-5 -3 -23 40.25 23.68
-3 5 -23 52.67 23.59
-5 -3 -22 54.08 19.03
-5 -3 -22 39.78 22.61
-3 5 -22 55.1 23.81
-5 -3 -21 79.5 22.8
-3 5 -21 148.78 23.86
-5 -3 -21 81.75 19.15
-3 5 -21 66.4 17.81
-3 5 -20 101.86 18
-3 5 -20 104.95 22.63
-5 -3 -20 128.94 19.58
-5 -3 -20 100.71 23.06
-3 5 -19 61.9 16.25
-3 5 -19 74.44 20.77
-5 -3 -19 69.85 17.63
-5 -3 -19 87.89 21.43
-3 5 -18 63.64 16.14
-3 5 -18 57.05 20.12
-5 -3 -18 68.16 17.01
-5 -3 -18 93.06 20.39
-3 5 -17 112 16.36
-3 5 -17 111.35 19.85
-5 -3 -17 127.97 17.48
-5 -3 -17 96.45 20.42
-3 5 -16 44.69 13.58
-3 5 -16 28.14 17.97
-5 -3 -16 -0.71 14.42
-5 -3 -16 28.03 17.73
5 3 -15 26.27 15.12
-5 -3 -15 54.89 17.59
-3 5 -15 53.98 17.35
3 5 15 18.2 13.71
-3 5 -15 51.5 14.05
-5 -3 -15 29.94 14.67
-5 -3 -14 18.08 13.77
3 -5 -14 15.07 11.34
-3 5 -14 7.43 16.07
-5 -3 -14 43.35 16.01
5 3 -14 57.32 14.67
-3 5 -14 13.31 12.07
3 5 14 27.84 12.89
-3 5 -13 252.92 20.08
-5 -3 -13 241.76 18.26
3 -5 -13 250.24 17.03
5 3 -13 289.54 18.2
-5 -3 -13 274.43 20.38
3 5 13 246.73 17.41
-3 5 -13 246.08 17.83
3 -5 -12 346.66 19.42
5 3 -12 359.34 19.5
-5 -3 -12 333.15 21.61
-3 5 -12 349.88 22.34
3 5 12 354.77 19.49
-5 -3 -12 301.44 20.24
-3 5 -12 345.22 19.78
5 3 -11 118.41 12.09
-5 -3 -11 86.46 14.74
-3 5 -11 90.68 15.56
-3 5 -11 71.71 12.38
3 -5 -11 64.36 12.66
-5 -3 -11 51.26 12.93
3 5 11 71.89 11.91
5 3 -10 195.48 13.3
-5 -3 -10 164.53 15.79
-3 5 -10 182.71 16.74
-3 5 -10 171.47 14.71
3 -5 -10 185.55 14.62
-5 -3 -10 194.27 15.26
3 5 10 160.21 14.2
-5 -3 -9 21.44 12.47
5 3 -9 67.73 9.67
-3 5 -9 26.41 10.54
-3 5 -9 30.19 13.48
-5 -3 -9 13.15 11.19
3 5 9 43.58 11.12
3 -5 -9 28.17 11.61
5 3 -8 268.55 13.12
-5 -3 -8 235.08 16.46
3 5 8 258.63 15.39
3 -5 -8 257.26 15.82
-5 3 8 258.69 15.1
-5 3 8 227.71 11.9
-5 -3 -8 247.17 15.89
5 3 -8 197.7 9.51
-3 5 -8 249.51 15.06
-3 5 -7 230.84 13.4
5 3 -7 175.65 6.87
3 -5 -7 198.63 13.05
-3 5 -7 207.84 12.75
-5 -3 -7 206.83 13.36
5 3 -7 197.89 6.03
5 3 -7 195.03 9.69
-5 -3 -7 224.89 13.98
3 5 7 205.33 12.82
3 5 6 32.47 10.05
5 3 -6 -17.98 6.89
-5 -3 -6 -0.34 10.55
-5 3 6 3.96 7.33
-5 -3 -6 11.37 10.1
3 5 6 5.71 8.29
3 -5 -6 21.34 6.84
-3 -5 6 12.69 8.86
-3 5 -6 14.42 10.85
5 3 -6 15.57 3.52
5 3 -6 9.16 4.39
3 -5 -6 6.54 10.57
5 -3 6 9.63 7.82
-3 5 -6 7.15 9.8
5 3 -5 659.19 26.1
3 5 5 719.14 28.89
-5 -3 -5 723.6 28.82
-3 -5 5 719.1 27.92
-3 5 -5 711.31 29.27
3 -5 -5 692.95 29.36
-5 3 5 725.29 27.31
-5 -3 -5 731.34 29.32
3 5 5 758.88 28.69
-3 5 -5 738.58 29.2
3 -5 -5 778.78 28.27
3 -5 -4 1245.07 46.51
-5 3 4 1274.94 44.81
5 3 -4 1173.9 43.18
-5 -3 -4 1248.55 45.58
3 5 4 1268.21 45.93
-3 -5 4 1270.21 45.14
3 5 4 1296.86 45.92
-5 -3 -4 1307.98 46.31
-3 -5 3 970.81 36.24
3 -5 -3 930.48 37.5
-5 3 3 928.77 35.73
-5 -3 -3 963.67 36.02
-5 -3 -3 1061.19 37.09
5 3 -3 969.96 34.25
3 5 3 1011.5 36.7
-5 -3 -2 218.58 12.14
5 3 -2 205.32 9.36
5 -3 2 197.68 8.2
-5 3 2 209.63 11.7
-3 -5 2 227.38 12.43
3 -5 -2 222.34 14.47
-5 -3 -2 194.67 10.9
-5 3 1 852.73 30.61
3 -5 -1 830.72 32.07
-3 -5 1 861.06 30.98
-3 -5 1 852.18 30.25
3 -5 -1 836.94 33.03
5 -3 1 903.33 28.67
5 3 -1 838.2 29.26
-5 -3 -1 896.23 30.49
5 3 0 77.35 6.64
-5 3 0 95.28 9.14
3 -5 0 101.65 11.57
5 -3 0 103.62 10.77
-3 5 0 0.77 2.39
5 3 0 86.67 4.78
-3 -5 0 91.85 9.88
5 -3 0 68.1 5.77
-5 3 0 100.15 10.88
3 -5 0 104.53 12.95
5 3 1 750.3 25.39
5 3 1 790.83 26.43
5 -3 -1 755.24 27.7
3 -5 1 779.34 29.12
-5 3 -1 779.76 27.67
3 5 -1 828.04 26.92
-3 -5 -1 793.57 28.09
-3 5 1 818.68 26.73
5 -3 -1 847.63 26.09
3 -5 1 764.62 29.75
-5 3 -1 800.81 28.58
5 -3 -1 733.74 28.65
5 3 2 226 11.97
5 -3 -2 239.41 13.63
3 -5 2 245.4 15.5
-5 3 -2 242.15 13.69
-3 5 2 222.32 12.86
3 5 -2 235.65 11.79
-5 -3 2 236.39 10.9
-3 -5 -2 244.29 14.42
-3 5 2 218.33 12.51
-5 3 -2 223.43 12.98
5 3 2 229.99 11.36
-5 3 -2 252.76 14.61
5 -3 -2 240.06 14.96
-3 -5 -3 1067.27 38.96
5 3 3 1071.08 37.56
3 -5 3 991.59 39.37
-5 3 -3 911.51 37.93
5 -3 -3 973.71 37.64
-5 -3 3 1006.04 35.77
-3 5 3 1004.69 37.94
3 5 -3 1054.34 36.95
-3 5 3 1101.59 38.01
-5 3 -3 1063.88 38.25
3 5 -3 973.06 36.76
5 3 3 961.1 36.87
5 3 4 1222.62 22.45
3 -5 4 1269.11 26.63
5 -3 -4 1248.76 22.97
-5 -3 4 1224.55 18.37
3 5 -4 1280.3 21.82
-3 5 4 1267.04 23.64
-3 5 4 1353.11 24.48
-5 3 -4 1283.34 24.65
5 3 4 1306 23.28
3 5 -4 1228.83 21.69
-3 5 5 762.17 28.93
3 5 -5 709.84 27.04
5 -3 -5 677.41 27.47
-3 5 5 661.77 27.81
-5 3 -5 782.19 28.93
5 3 5 666.77 27.64
5 3 5 688.48 27.68
3 5 -6 24.22 8.57
5 3 6 10.7 8.45
5 -3 -6 13.81 7.51
-3 5 6 17.03 10.84
5 3 6 14.88 9.21
5 -3 -6 10.96 8.7
3 5 -6 15.88 7.74
-5 3 -6 15.36 9.8
-5 -3 7 204.98 11.18
3 5 -7 203.35 11.76
5 -3 -7 211.38 12.48
5 3 7 207.53 13.5
3 5 -7 212.98 12.72
5 3 7 205.27 12.78
-5 3 -7 204.3 14.36
5 -3 -7 199.93 11.84
-5 -3 8 271.56 13.41
-5 3 -8 246.17 17.27
3 5 -8 269.74 13.59
-5 3 -8 250.64 16.11
5 -3 -8 275.97 14.2
3 5 -8 255.85 13.04
5 3 8 260.27 15.38
3 5 -8 258.64 14.69
3 5 -9 19.61 9.26
-5 3 -9 37.42 12.62
3 5 -9 22.92 7.46
5 3 9 24.31 9.39
-5 3 -9 35.79 11.23
5 -3 -9 36.92 9.07
-3 5 9 28.53 8.54
3 5 -10 162.43 13.14
-5 3 -10 186.27 16.71
3 5 -10 172.09 11.09
5 -3 -10 198.86 12.74
-3 -5 -10 197.2 15.21
5 3 10 167.43 12.78
-5 3 -10 183.55 14.72
5 -3 -11 99.25 9.91
5 3 11 53.41 10.78
-3 -5 -11 60.08 12.88
-5 3 -11 67.21 14.59
3 5 -11 74.35 8.45
-5 3 -11 76.99 12.35
3 5 -11 64.66 11.78
3 5 -12 342.97 19.92
-5 3 -12 327.27 22.19
5 3 12 339.09 18.13
-3 -5 -12 316.65 20.15
-5 3 -12 337.17 19.84
-5 3 -13 289.06 19.3
5 3 13 303.82 17.67
-5 3 -13 286.32 21.22
-3 -5 -13 323.47 20.42
3 5 -13 298.15 19.7
-5 3 -14 15.59 16.12
3 5 -14 28.91 14.86
-3 -5 -14 32.79 14.07
-5 3 -14 32.92 13.61
5 3 14 32.17 12.31
-5 3 -15 15.34 13.72
-5 3 -15 19.68 16.63
3 5 -15 54.23 16.31
-3 -5 -15 51.44 14.48
-5 3 -16 38.11 14.5
-5 3 -16 6.79 17.87
3 5 -16 21.29 16.25
-3 -5 -16 29.1 15.26
-5 3 -17 81.87 16.61
-5 3 -17 118.77 20.49
3 5 -17 113.77 18.67
-3 -5 -17 101.91 17
-5 3 -18 75.38 20.15
3 5 -18 78.12 19.06
-5 3 -18 72.9 16.76
-3 -5 -18 73.04 16.53
-5 3 -19 88.31 21.07
-5 3 -19 68.33 17.23
-3 -5 -19 76.11 17.31
-5 3 -20 100.97 21.93
-5 3 -20 97.63 18.35
-5 3 -21 54.53 21.94
-5 3 -21 86.85 18.25
-5 3 -22 76.18 23.69
-5 3 -22 44.6 18.49
-5 3 -23 23.77 23.35
-5 3 -23 31.59 18.77
-5 3 -24 75.73 25.12
-5 3 -24 42.66 19.65
-5 3 -25 70.76 25.76
-5 3 -26 42.37 27.19
-5 3 -27 24.59 27.3
-4 5 -27 61.75 28.48
-4 5 -26 21.35 27.11
-5 -4 -26 24.59 20.91
-4 5 -25 20.54 25.67
-5 -4 -25 25.11 20.89
-5 -4 -24 25.49 20.6
-4 5 -24 65.66 25.39
-5 -4 -24 13.44 23.26
-5 -4 -23 133.28 20.52
-5 -4 -23 126.06 24.92
-4 5 -22 29.87 23.01
-5 -4 -22 78.19 19.91
-4 5 -22 64.51 17.91
-5 -4 -22 40.83 23.16
-4 5 -21 6.61 21.88
-5 -4 -21 47.78 18.59
-4 5 -21 6.81 17.29
-5 -4 -21 59.96 21.88
-4 5 -20 22.25 16.55
-5 -4 -20 22.11 17.05
-4 5 -20 16.89 21.27
-5 -4 -20 22.92 20.32
-4 5 -19 163.65 19.66
-5 -4 -19 123.04 19.02
-4 5 -19 158.23 23.4
-5 -4 -19 164 23.18
-4 5 -18 42.74 15.28
-5 -4 -18 34.18 16.5
-4 5 -18 60.29 19.95
-5 -4 -18 22.68 20.13
-4 5 -17 24.91 15.26
-5 -4 -17 -3.58 18.43
-5 -4 -17 49.82 16.07
-4 5 -17 32.38 18.85
-4 5 -16 64.06 15.29
-5 -4 -16 80.87 19.02
-5 -4 -16 69.02 16.36
4 5 16 63.72 15.06
-4 5 -16 96.95 19.8
-4 5 -15 266.67 19.43
4 5 15 238.15 18.71
-4 5 -15 276.23 23.28
-5 -4 -15 252.78 20.31
-5 -4 -15 270.67 22.76
-4 5 -14 177.04 18.71
4 5 14 218.09 15.82
-4 5 -14 204.95 16.66
-5 -4 -14 191.4 16.79
-5 -4 -14 162.39 19.12
-4 5 -13 38.14 16.27
4 5 13 14.02 11.96
4 -5 -13 16.79 10.39
-4 5 -13 2.35 12.3
-5 -4 -13 18.95 13.39
-5 -4 -13 26.39 15.27
5 4 -13 34.91 12.64
-4 5 -12 164.64 18.47
5 4 -12 216.71 15.27
-5 -4 -12 173.11 18.1
4 5 12 160.13 15.02
-4 5 -12 191.71 16.24
-5 -4 -12 167.01 16.41
4 -5 -12 190.89 14.43
4 5 11 604.36 26.45
-4 5 -11 582.09 27.09
4 -5 -11 580.39 26.21
-4 5 -11 596.75 29.45
-5 -4 -11 544.54 27.53
-5 -4 -11 553.83 28.55
5 4 -11 601.82 25.84
-5 -4 -10 69.85 14.33
-4 5 -10 51.29 12.08
4 -5 -10 74.86 12.15
-4 5 -10 66.3 14.81
4 5 10 64.26 11.86
5 4 -10 71.7 10.33
-5 -4 -10 60.04 12.8
-5 -4 -9 93.03 13.84
4 -5 -9 98.23 12.31
-4 5 -9 79.52 12.17
5 4 -9 64.45 9.12
-5 -4 -9 68.16 12.42
-5 -4 -8 30.65 12.37
-4 5 -8 34.37 10.85
4 -5 -8 37.92 11.1
5 4 -8 44.28 5.39
-5 -4 -8 61.72 11.77
5 4 -8 36.52 8.2
4 -5 -7 228.58 14.71
-5 -4 -7 205.64 14.85
-5 -4 -7 225.81 15.55
4 5 7 197.58 13.85
5 4 -7 227.42 11.46
-4 5 -7 179.3 14.15
5 4 -7 172.79 9.06
4 5 6 278.29 15.71
5 4 -6 322.65 13.27
-5 -4 -6 291.47 16.78
-4 -5 6 273.89 13.78
4 -5 -6 270.39 16.28
-5 4 6 282.67 14.27
5 4 -6 282.74 12.2
-5 -4 -6 270.57 16.57
4 5 6 239.71 14.71
4 -5 -6 264.59 14.23
-4 5 -6 268.71 16.07
4 5 5 873.81 33.64
5 4 -5 868.52 31.33
-4 -5 5 841.8 32.31
4 -5 -5 847.68 34.3
5 4 -5 873.38 31.16
-5 4 5 820.88 32.73
-5 -4 -5 918.01 34.6
4 5 5 899.65 33.58
-4 5 -5 854.27 34.38
-5 -4 -5 846.19 33.9
4 -5 -5 881.89 33.1
4 -5 -4 166.44 13.75
-5 4 4 170.2 11.47
-4 -5 4 180.09 11.25
4 -5 -4 187.83 11.08
-5 -4 -4 198.41 13.37
4 5 4 216.23 12.12
4 5 4 165.31 12.1
5 4 -4 186.59 8.67
-5 -4 -4 164.76 12.55
-4 -5 3 388.44 17.35
4 -5 -3 410.26 19.55
-5 4 3 384.71 17.51
-4 5 -3 417.24 19.04
-5 -4 -3 402.72 18.58
4 5 3 391.75 17.75
4 5 3 368.12 17.68
4 -5 -2 661.51 18.95
-4 -5 2 658.27 16.36
-5 4 2 630.78 16.62
-4 5 -2 615.75 19.14
4 -5 -2 615.36 20.2
4 5 2 644.38 15.88
-4 5 -2 628.21 13.04
5 4 -2 630.56 14.21
4 5 2 671.96 16.76
5 -4 1 147.75 12.45
4 -5 -1 143.85 12.39
-5 4 1 150.47 10.41
-4 5 -1 -1.99 5.72
-4 5 -1 94.25 11.21
4 -5 -1 142.97 13.8
-4 -5 1 122.3 8.42
-4 -5 1 128.94 10.3
5 4 -1 125.21 7.88
4 5 1 103.12 9.12
-4 5 -1 121.77 7.3
-4 5 0 45.18 7.26
5 -4 0 36.19 5.93
4 -5 0 80.7 11.87
5 -4 0 84 11.57
-5 4 0 92.62 9.66
-4 5 0 80.95 9.18
5 -4 0 62.89 12.38
4 -5 0 56.09 12.92
-5 4 0 75.38 10.93
-4 -5 0 83.12 10.05
5 4 0 67.46 5.8
5 4 0 67.75 7.2
5 4 1 126.53 9.21
-5 4 -1 144.88 11.29
5 -4 -1 144.09 11.98
4 -5 1 137.94 13.23
-4 5 1 146.31 10.9
5 4 1 128.26 8.08
-5 -4 1 119.68 9.47
-4 -5 -1 134.7 11.48
-5 4 -1 142.98 12.28
5 -4 -1 135.64 13.94
-4 5 1 114.53 9.34
5 -4 -1 122.31 8.14
-5 4 -2 560.27 27.35
5 -4 -2 665.63 28.83
-4 -5 -2 694.51 27.79
5 4 2 641.22 25.56
5 4 2 646.82 26.28
-5 4 -2 705.38 27.39
4 -5 2 703.42 29.04
5 -4 -2 695.27 27.67
-4 5 2 674.14 26.96
-5 -4 2 703.75 25.81
4 5 -2 694.87 25.81
-4 5 2 709.1 26.59
5 -4 -2 709.81 25.83
5 4 3 441.33 15.65
5 -4 -3 408.84 16.8
4 -5 3 406.53 18.49
-5 -4 3 383.46 13.69
4 5 -3 398.56 14.11
-4 5 3 389.29 15.81
5 4 3 407.14 14.83
-5 4 -3 410.48 16.43
-4 5 3 424 16.43
5 -4 -3 394.95 14.5
4 5 -3 382.32 13.71
5 4 4 195.22 10.73
5 -4 -4 182.8 11.93
-5 -4 4 182.36 8.38
4 5 -4 218.84 9.53
-4 5 4 175.9 10.91
5 4 4 185.21 10.62
-5 4 -4 185 12
5 -4 -4 212.85 10.08
4 5 -4 177.14 9.27
5 4 5 850.44 32.78
-5 4 -5 853.59 33.99
-5 -4 5 812.84 30.75
5 -4 -5 856.25 33.2
4 5 -5 877.72 31.55
-4 5 5 853.12 32.76
5 -4 -5 835.25 32.44
-5 4 -5 926.29 34.14
4 5 -5 823.77 31.62
5 4 5 878.28 32.93
5 -4 -6 264.53 13.9
-4 5 6 285.2 14.66
4 5 -6 280.65 13.96
5 4 6 250.26 15.01
-5 4 -6 260.11 15.81
4 5 -6 274.43 13.12
5 -4 -6 266.37 15.18
5 4 6 264.62 14.43
5 4 7 208.84 13.79
4 5 -7 222.79 12.61
4 5 -7 214.37 11.49
5 -4 -7 200.61 13.59
-5 4 -7 185.1 14.45
5 -4 -7 188.02 12.05
4 5 -8 33.31 9.01
5 4 8 40.47 10.31
-4 -5 -8 53.35 12.06
5 -4 -8 36.23 10.2
4 5 -8 37.93 6.88
-5 4 -8 67.96 11.5
4 5 -9 72.22 7.53
-5 4 -9 70.69 12.14
4 5 -9 55.23 9.97
-5 4 -9 63.11 13.75
-4 -5 -9 68.24 12.69
-4 5 9 82.7 9.16
5 -4 -9 79.9 10.9
-4 -5 -10 54.82 13.62
4 5 -10 23 10.04
-5 4 -10 74.36 14.9
5 -4 -10 104.42 11.09
-5 4 -10 56.9 12.23
5 4 10 51.08 10.8
-4 -5 -10 62.66 13
-4 5 10 60.6 8.83
-5 4 -11 617.14 30.7
5 4 11 647.99 27.59
-5 4 -11 675.23 29.33
5 -4 -11 676.02 27.14
4 5 -11 591.22 27.69
-4 -5 -11 595.48 30.05
-4 -5 -11 646.91 29.66
-5 4 -12 179.48 18.45
5 4 12 165.9 14.03
5 -4 -12 217.3 13.4
4 5 -12 160.07 15.15
-4 -5 -12 156.57 17.47
-4 -5 -12 182.93 16.36
-5 4 -12 185.25 16.06
5 4 13 22.16 11.24
4 5 -13 37.36 13.28
-4 -5 -13 40.16 16.2
-5 4 -13 16.59 15.46
-4 -5 -13 27.35 13.6
-5 4 -13 29.16 12.99
-5 4 -14 213.19 17.63
-5 4 -14 173.32 20.3
4 5 -14 200.13 17.7
-4 -5 -14 196.54 18.24
5 4 14 174.84 15.41
-4 -5 -14 184.45 19.84
-5 4 -15 245.3 19.6
-5 4 -15 283.62 23.29
4 5 -15 258.26 20.1
-4 -5 -15 233.51 20.17
5 4 15 247.7 18.34
-4 -5 -15 299.32 23.32
-4 -5 -16 93.77 19.27
-4 -5 -16 93.28 16.45
-5 4 -16 76.15 18.56
-5 4 -16 56.06 14.72
-4 -5 -17 27.48 18.47
-4 -5 -17 47.37 16.52
-5 4 -17 29.17 19.11
-5 4 -17 30.7 15.57
-4 -5 -18 15.87 19.42
-5 4 -18 52.09 20.07
-4 -5 -18 68.17 17.55
-5 4 -18 40.84 15.89
-5 4 -19 143.47 23.15
-4 -5 -19 159.66 19.87
-5 4 -19 140.17 19.53
-4 -5 -20 19.28 16.95
-5 4 -20 16.82 17.05
-5 4 -20 1.06 21.16
-4 -5 -21 6.36 18.09
-5 4 -21 12.18 21.84
-5 4 -21 17.35 17.2
-5 4 -22 85.45 24.5
-5 4 -22 88.9 19.16
-5 4 -23 54.03 24.42
-5 4 -23 92.89 20.12
-5 4 -24 36.05 24.72
-5 4 -24 40.29 19.25
-5 4 -25 13 25.67
-5 4 -26 44.31 26.88
-5 4 -27 31.64 27.36
-5 5 0 10.87 7.49
5 -5 0 3.98 12.08
-5 -5 0 13.88 9.15
-5 5 0 13.49 8.89
5 -5 0 20.14 11.31
5 5 0 4.75 5.15
5 5 0 1.78 6.91
-5 -5 1 21.79 6.2
-5 5 -1 -2.87 5.4
5 -5 -1 19.57 12.38
-5 -5 1 16.65 8.64
-5 5 -1 17.62 8.96
-5 5 1 25.04 8.88
5 5 1 20.42 7.5
-5 -5 -1 12.91 9.68
5 5 1 -1.88 6.16
5 -5 1 7.3 11.54
5 -5 -1 17.46 11.12
5 5 2 250.56 10.57
-5 5 -2 84.5 8.94
-5 5 2 271.83 11.65
-5 -5 2 221.99 10.4
5 -5 -2 220.64 9.21
5 -5 -2 249.9 14.99
5 5 2 193.08 9.08
5 -5 -2 219.99 13.35
5 -5 2 257.75 14.71
5 5 3 479.18 12.77
5 -5 -3 444.58 15
-5 -5 3 443.14 11.18
-5 5 3 428.78 12.58
5 -5 -3 458.98 17.37
5 -5 -3 464 11.18
5 5 3 412.54 11.14
5 5 -4 23.61 6.06
-5 5 -4 8.68 9.37
5 5 -4 19.29 5.92
-5 5 -4 21.61 8.76
-5 -5 4 15.76 7.5
5 -5 -4 13.76 10.71
5 5 4 24.29 8.29
5 -5 -4 1.29 7.23
5 5 -4 -2.31 6.68
-5 5 4 16.68 8.52
5 5 4 9.8 8.14
5 5 5 71.54 9.77
5 5 -5 57.46 7.65
5 5 5 73.41 9.46
-5 -5 5 73.21 8.19
5 -5 -5 68.94 11.6
5 -5 -5 64.57 8.34
-5 5 -5 70.64 10.94
-5 5 5 73.29 9.61
5 5 -5 76.2 7.51
-5 -5 6 418.17 18.75
5 -5 -6 486.7 21.76
-5 5 6 460.1 20.4
5 -5 -6 501.91 20.26
-5 5 -6 492.52 22.21
-5 -5 -6 478.6 22.57
5 5 6 450.11 20.88
5 5 -6 447.6 18.87
5 -5 -7 11.83 10.68
-5 -5 -7 13.35 11.29
5 5 7 16.03 9.63
5 5 -7 30.75 7.81
-5 5 -7 8.3 10.4
5 5 -8 41.34 8.47
5 -5 -8 8.24 10.35
-5 -5 -8 7.83 11.76
-5 -5 -8 -5.93 11.52
-5 5 -8 8.39 10.67
5 5 -9 33.64 8.61
5 -5 -9 22.69 10.78
-5 -5 -9 4.58 12.51
-5 -5 -9 12.61 11.93
-5 5 -9 20.5 11.13
-5 -5 -10 46.26 13.92
-5 5 -10 40.28 12.09
5 5 -10 23.49 9.6
5 -5 -10 55.59 11.18
-5 5 -10 29.82 14.42
-5 -5 -10 49.76 13.19
5 5 10 42.67 11.77
-5 -5 -11 146.66 16.1
5 5 -11 110.7 12.23
-5 5 -11 105.41 16.63
-5 5 -11 94.43 14.16
5 5 11 122.19 13.11
-5 -5 -11 110.92 14.92
5 -5 -11 162.95 13.11
5 5 12 83.2 12.61
-5 5 -12 76.47 13.82
-5 5 -12 93.46 16.57
-5 -5 -12 71.99 16.51
-5 -5 -12 84.77 14.41
-5 -5 -13 92.82 15.63
-5 5 -13 95.61 18.02
-5 5 -13 107.56 15.21
5 5 13 114.94 13.61
-5 -5 -13 130.08 17.33
-5 -5 -14 209.44 19.05
-5 5 -14 214.33 20.62
-5 5 -14 203.73 17.76
5 5 14 221.25 16.97
-5 -5 -14 206.19 21.13
-5 -5 -15 63.82 15.92
-5 5 -15 37.03 18.37
-5 -5 -15 33.68 17.7
5 5 15 80.28 13.99
-5 5 -15 85.89 15.19
-5 5 -16 6.39 14.73
-5 -5 -16 -8.5 17.79
-5 -5 -16 5.39 15.18
5 5 16 -2.38 13.33
-5 5 -16 25.62 18.81
-5 5 -17 39.91 19.72
-5 -5 -17 33.8 16.72
-5 5 -17 23.94 14.74
-5 -5 -17 42.22 19.19
-5 5 -18 21.5 19.17
-5 -5 -18 14.28 16.53
-5 5 -18 -24.4 15.8
-5 -5 -18 43.6 19.23
-5 5 -19 53.9 21.94
-5 -5 -19 83.24 17.93
-5 5 -19 89.93 18.47
-5 -5 -19 61.79 21.53
-5 5 -20 29.15 21.79
-5 -5 -20 34.66 17.69
-5 5 -20 48.31 17.61
-5 -5 -20 8.33 20.67
-5 5 -21 18.68 17.69
-5 5 -21 45.12 22.45
-5 -5 -21 23.62 17.99
-5 5 -22 10.92 18.28
-5 5 -22 -23.52 22.59
-5 -5 -22 20.47 18.78
-5 5 -23 14.08 18.81
-5 5 -23 -41.48 24.49
-5 -5 -23 -4.02 19
-5 5 -24 25.29 24.95
-5 5 -25 44.27 26.33
-5 5 -26 55.52 28.16
-5 5 -27 39.07 28.46
0 -6 0 393.66 19.6
0 6 0 375.03 18.21
6 0 0 409.18 16.05
-6 0 0 406.15 16.89
0 -6 0 381.99 20.01
-6 0 0 394.09 16.45
0 -6 1 145.97 12.53
0 6 -1 110.96 10.71
0 6 1 127.03 11.14
0 -6 -1 126.83 12.63
0 -6 1 122.07 12.78
-6 0 -1 121.46 9.26
6 0 1 129.03 8.56
-6 0 1 122.73 7.97
0 6 -2 254.04 14.2
0 -6 -2 257.01 15.53
6 0 2 251.47 12.43
6 0 -2 241.89 12.42
0 6 -2 286.23 15.12
-6 0 2 244.37 10.98
-6 0 -2 264.68 13.16
-6 0 2 272.1 11.61
0 -6 2 235.05 15.33
6 0 3 133.4 10.19
-6 0 -3 188.58 11.69
-6 0 3 167.92 8.09
0 -6 3 189.97 13.94
0 6 -3 171.86 12.11
-6 0 -3 153.68 11.57
0 -6 -3 159.4 14.06
-6 0 3 150.92 7.62
6 0 -3 159.84 10.3
0 6 -3 176.16 13.05
-6 0 -4 34.91 9.45
0 -6 4 18.11 11.38
0 6 -4 22.99 9.7
-6 0 4 11.5 3.65
-6 0 -4 16.33 9.21
0 -6 -4 13.07 11.71
-6 0 4 17.91 4.15
6 0 4 16.48 7.64
0 6 -4 8.91 10.45
0 -6 5 3252.1 115.4
0 6 -5 3293.01 114.72
6 0 5 3375.42 114.51
0 -6 -5 3163.96 115.72
-6 0 -5 3104.37 114.93
-6 0 -5 3413.68 115.34
0 -6 -6 1.95 11.9
-6 0 -6 -9.76 10.61
0 6 6 4.97 11.22
-6 0 -6 12.17 10.91
0 -6 6 -3.95 11.21
0 6 -6 -1.19 8.75
6 0 6 -7.18 8.01
-6 0 6 17.7 8.03
0 -6 -7 20.51 12.25
0 6 -7 37.4 8.86
6 0 -7 30.79 4.61
-6 0 -7 43.29 11.16
6 0 7 41.4 6.98
0 6 7 33.48 11.89
-6 0 7 12.61 8.36
-6 0 -7 30.91 11.59
0 6 -8 853.31 32.92
6 0 -8 816.93 29.99
0 -6 -8 837.59 34.95
0 6 8 869.26 34.57
6 0 8 836.37 31.15
-6 0 8 804.67 32.48
-6 0 -8 866.87 34.86
-6 0 -8 909.67 35.02
0 6 -8 867.05 33.14
0 6 -9 -0.47 11.61
0 6 -9 7.53 8.01
0 -6 -9 1.37 12.04
6 0 9 3.56 6.84
0 6 9 3.88 11.51
-6 0 9 9.13 8.83
-6 0 -9 -1.95 11.72
-6 0 -9 12.95 11.31
0 6 -9 4.85 8.76
-6 0 -10 5.65 11.68
0 -6 -10 -7.24 12.74
0 6 -10 21.94 12.2
-6 0 -10 -0.54 13.06
0 6 10 14.41 12.16
6 0 10 8.61 7.37
0 6 -10 20.13 8.94
-6 0 -11 545.15 26.48
0 6 11 566.8 26.42
-6 0 -11 521.05 27.2
0 6 -11 545.88 26.95
0 6 -11 562.16 24.51
0 6 12 -3.25 12.71
0 6 -12 26.05 13.77
-6 0 -12 33.53 14.13
0 6 -12 39.03 9.82
-6 0 -12 13.84 12.45
0 6 -13 291.23 21.42
-6 0 -13 289.81 21.96
0 6 13 359.23 21.26
-6 0 -13 334.61 20.8
0 6 -13 338.76 18.45
-6 0 -14 -14.61 15.6
0 6 -14 3.4 15.15
-6 0 -14 3.89 13.56
0 6 -14 9 11.15
0 6 -15 4.35 16.51
-6 0 -15 39.7 16.69
-6 0 -15 26 14.49
0 6 -15 -10.45 12.14
-6 0 -16 11.6 17.13
0 6 -16 35.49 17.35
-6 0 -16 41.84 15.14
0 6 -16 51.36 13.07
-6 0 -17 27.43 15.6
-6 0 -17 7.9 17.78
0 6 -17 24.02 18.31
-6 0 -18 70.09 17.17
0 6 -18 85.54 20.52
-6 0 -18 65.92 19.44
-6 0 -19 -0.85 16.16
-6 0 -19 -5.91 19.62
0 6 -19 8.28 20.1
-6 0 -20 -21.85 16.78
0 6 -20 -12.6 20.94
-6 0 -20 37.36 20.71
-6 0 -21 158.12 24.64
-6 0 -21 160.21 20.64
0 6 -21 151.59 24.88
-6 0 -22 56.61 23.42
-6 0 -22 35.55 18.32
0 6 -22 91.42 24.1
-6 0 -23 1.18 22.79
-6 0 -23 -19.24 18.06
0 6 -23 -7.77 23.31
-6 0 -24 24.67 24.1
-6 0 -24 30.75 19.67
0 6 -24 6.99 24.27
0 6 -25 67.63 26.54
-6 0 -25 -3.84 24.47
-6 0 -25 10.19 19.54
-6 0 -26 31.83 26.12
-6 0 -26 -2.09 20.36
-6 0 -27 26.1 26.65
-1 6 -27 -17 27.99
-6 -1 -27 17.86 26.18
-6 -1 -27 21.73 21.68
-6 -1 -26 -12 25.28
-1 6 -26 59.77 27.55
-6 -1 -26 54.9 21.35
-6 -1 -25 -22.46 20.13
-6 -1 -25 6.43 24.37
-1 6 -25 -7.4 26.13
-6 -1 -24 19.85 19.62
-1 6 -24 20.08 24.49
-6 -1 -24 8.64 23.82
-1 6 -23 23.83 23.68
-6 -1 -23 -2.9 18.35
-6 -1 -23 28.42 22.98
-6 -1 -22 50.54 19.02
-6 -1 -22 72.59 23.04
-1 6 -21 58.45 22.71
-6 -1 -21 15.35 17.34
-6 -1 -21 37.85 21.02
-1 6 -20 38.81 22.07
-6 -1 -20 35.69 17.56
-6 -1 -20 73.13 21.23
-1 6 -19 99.55 22.16
-6 -1 -19 178.44 20.43
-6 -1 -19 136.95 22.52
-1 6 -18 55.93 19.8
-6 -1 -18 -5.59 18.85
-6 -1 -18 24.24 16
-6 -1 -17 68.77 19.71
-1 6 -17 94.14 19.44
-6 -1 -17 65.73 16.37
-1 6 -17 102.98 15.36
-6 -1 -16 -6.63 17.28
-1 6 -16 20.73 17.04
-6 -1 -16 21.48 15.22
-1 6 -16 -3.5 12.97
-6 -1 -15 50.3 17.35
-1 6 -15 6.77 16.93
-1 6 -15 26.39 13.02
-6 -1 -15 18.28 14.59
-1 6 -14 248.16 18.02
-6 -1 -14 295.17 19.98
-1 6 -14 275.36 21.94
-6 -1 -14 261.92 21.08
1 6 14 278.78 20.27
-6 -1 -13 77.04 14.76
1 -6 -13 71.22 14.52
1 6 13 82.73 14.31
-1 6 -13 64.92 15.52
-1 6 -13 74.34 12.46
-6 -1 -13 54.07 15.48
-6 -1 -12 16.29 13.84
-1 6 -12 17.49 14.28
1 -6 -12 7.8 12.95
-6 -1 -12 22.15 12.61
-1 6 -12 29.58 10.73
1 6 12 11 12.66
-6 -1 -11 198.25 17.3
-1 6 -11 209.33 17.55
-1 6 -11 196.68 14.5
-6 -1 -11 182.58 16.24
1 -6 -11 183.1 16.11
1 6 11 226.39 16.41
-1 6 -10 280.05 16.56
1 6 10 271.43 17.69
1 -6 -10 248.87 18.26
-1 6 -10 297.96 19.7
-6 1 10 291.81 16.08
-6 -1 -10 282 19.03
-6 -1 -10 299.76 18.16
1 -6 -9 772.54 32.57
-6 -1 -9 779.52 32.45
1 6 9 777.04 31.98
-6 1 9 742.66 30.54
-6 -1 -9 725.99 32.52
-1 6 -9 757.22 31.19
-6 -1 -8 333.88 18.2
-1 6 -8 287.86 16.69
6 -1 8 324.82 13.57
1 -6 -8 309.32 18.55
-1 6 -8 324.93 17.19
1 6 8 309.1 18.34
-6 1 8 314.85 16.39
-6 -1 -8 321.15 18.65
1 6 7 26.05 11.18
-6 1 7 42.09 9.35
-6 -1 -7 40.99 11.68
-6 -1 -7 35.82 10.82
1 6 7 36.81 11.89
6 -1 7 26.68 5.48
-1 6 -7 33.44 10.02
-1 6 -7 20.09 9.63
1 -6 -7 42.79 12.2
-1 -6 6 2710.12 93.13
-1 6 -6 2562.29 92.75
1 -6 -6 2608.66 93.72
6 -1 6 2565.91 90.24
-6 -1 -6 2660.24 93.38
1 6 6 2622.96 92.82
-6 -1 -6 2650.38 93.15
6 -1 6 2645.8 92.43
6 -1 5 1487.29 52.31
1 -6 -5 1422.41 53.86
-6 1 5 1383.3 50.2
-1 6 -5 1500.38 53.08
-1 -6 5 1402.28 52.94
-6 -1 -5 1457.97 52.89
-6 -1 -5 1492.28 53.19
-6 -1 -4 313.65 16.11
-6 1 4 288.39 12.72
1 -6 -4 299.9 17.82
6 -1 4 338.82 14.99
-1 6 -4 304.63 17.4
-6 -1 -4 325.56 15.63
-1 6 -4 298.79 16.43
-1 -6 4 308 16.94
-6 -1 -3 1602.2 55.13
1 -6 -3 1517.11 56.15
-1 6 -3 1531.81 55.23
-6 1 3 1500.51 53.14
-1 -6 3 1501.72 55.55
-6 1 3 1538.4 53.01
6 -1 3 1557.99 54.43
-6 -1 -3 1521.73 54.47
6 1 -3 1433.16 52.96
-1 6 -3 1535.12 55.84
-6 -1 -2 2297.79 78.14
-6 1 2 2161.97 76.95
1 -6 -2 2237.29 79.37
-1 6 -2 2165.47 78.47
-1 -6 2 2238.52 78.89
1 6 2 2268.94 78.52
6 1 -2 2199.64 76.2
-6 1 2 2173.29 76.79
6 -1 2 2283.14 77.72
-1 6 -2 2175.14 78.97
-6 -1 -2 2167.6 77.39
-1 -6 1 119.34 12
1 -6 -1 109.81 13.41
-1 6 -1 116.81 12.09
1 6 1 77.43 10.3
-6 1 1 103.28 8.81
-1 -6 1 92.47 11.52
1 -6 -1 104.17 12.02
-1 6 -1 101.46 10.61
6 1 -1 95.53 6.64
-6 -1 -1 97.08 8.87
6 -1 1 93.45 8.02
-6 1 1 96.37 7.63
-6 -1 -1 90.41 7.7
-6 1 0 44.19 8.46
-6 -1 0 49.61 7.11
1 -6 0 59.68 11.35
-1 -6 0 48.6 10.62
1 6 0 52.07 9.56
-6 1 0 58.13 7.34
6 1 0 50.86 6.23
1 -6 0 43.28 11.94
-6 -1 0 47.58 6.58
-1 -6 0 33.26 10.97
-6 1 0 40.19 8.75
-6 -1 1 81.43 7.1
1 -6 1 96.9 12.31
6 1 1 88.46 7.57
-1 -6 -1 87.93 11.68
1 6 -1 95.83 10.1
-6 1 -1 92.08 9.85
1 -6 1 100.71 12.37
-6 1 -1 92.76 8.62
1 -6 2 2075.75 75.85
-1 -6 -2 2152.43 75.92
1 6 -2 2104.35 74.81
1 6 -2 2104.95 74.81
6 -1 -2 2038.44 74.44
-6 -1 2 2097.81 73.02
-6 1 -2 2221.45 74.96
6 1 2 2114.98 74.18
-6 -1 3 1516.12 54.35
1 -6 3 1540.1 57.89
-1 -6 -3 1598.71 58.05
-1 6 3 1593.68 57.01
1 6 -3 1623.08 56.75
6 -1 -3 1523.5 56.33
1 6 -3 1556.79 56.68
-6 -1 3 1589.25 54.27
6 1 3 1603.33 56.29
-6 1 -3 1670.69 57.12
1 -6 4 313.35 15.89
6 -1 -4 310.18 10.48
-6 1 -4 345.42 13.84
6 1 4 342.34 12.48
1 6 -4 307.06 12.82
-1 -6 -4 332.91 15.75
1 6 -4 280.13 13.01
-6 -1 4 291.52 10.06
-6 1 -5 1444.5 53.31
1 6 -5 1443.19 52.27
-1 -6 -5 1462.08 54.09
6 1 5 1448.6 52.27
-6 1 -5 1483.67 53.33
-1 6 5 1424.57 53.28
-6 -1 5 1395.77 50.84
1 -6 5 1516.69 54.11
6 -1 -5 1414.22 50.5
1 6 -6 2679.52 92.72
1 -6 6 2639.88 94.2
6 -1 -6 2678.97 90.99
-6 1 -6 2646.71 93.82
6 1 6 2558.82 92.8
-1 -6 -6 2668.94 94.46
-1 6 6 2562.3 93.64
-6 -1 6 2578.61 91.65
-6 1 -6 2609.68 93.95
-1 -6 -7 49.03 12.54
1 6 -7 45.06 8.07
6 -1 -7 36.04 6.57
-1 6 7 43.38 11.81
-6 1 -7 30.14 10.72
-6 -1 7 42.41 7.95
-6 1 -7 40.28 11.86
1 6 -8 301.63 15.24
6 -1 -8 295.4 13.47
1 6 -8 312.21 15.22
6 1 8 302.86 16.58
-6 1 -8 305.69 18.48
-6 -1 8 280.03 14.99
-6 1 -8 303.23 17.52
6 1 8 314.04 14.73
-1 6 8 343.28 18.18
1 6 -9 783.96 31.12
-1 6 9 831.05 33.47
1 6 -9 829.62 31.29
1 6 -9 762.27 32.91
-6 1 -9 754.89 33.91
-6 1 -9 854.1 33.58
6 1 9 742.6 30.14
-1 6 10 345.13 19.49
6 1 10 313.64 15.45
1 6 -10 282.67 15.75
1 6 -10 362.24 19.15
-6 1 -10 323.49 19.84
-6 1 -10 293.87 18.93
1 6 -10 311.18 16.21
1 6 -11 241.03 14.08
-6 1 -11 231.65 17.31
-6 1 -11 216.22 18.16
1 6 -11 242.56 17.47
-1 6 11 225.39 17.11
6 1 11 241.84 13.45
-6 1 -12 8.23 12.55
-6 1 -12 28.09 14.27
-1 6 12 1.13 13.2
1 6 -12 25.47 13.48
1 6 -12 18.82 8.88
1 6 -13 77.31 15.01
-6 1 -13 58.26 15.95
1 6 -13 46.93 10.52
-6 1 -13 60.83 13.76
1 6 -14 281.38 20.78
-6 1 -14 285.31 21.36
1 6 -14 234.37 16.23
-6 1 -14 261.47 19.26
-6 1 -15 56.73 16.71
1 6 -15 4.89 15.69
-6 1 -15 30.04 13.88
1 6 -16 -3.02 17.02
-6 1 -16 15.08 17.39
-6 1 -16 18.7 14.46
1 6 -17 67.88 18.87
-6 1 -17 86.9 19.83
-6 1 -17 55.79 16.26
-6 1 -18 43.1 19.66
1 6 -18 59.24 19.52
-6 1 -18 29.99 16.02
-6 1 -19 112.32 22.08
1 6 -19 114.64 21.45
-6 1 -19 121.47 18.38
-6 1 -20 55.93 21
1 6 -20 53.79 21.79
-6 1 -20 41.7 17.7
-6 1 -21 7.65 21.58
1 6 -21 36.64 22.11
-6 1 -21 47.46 18.49
1 6 -22 106 24.05
-6 1 -22 123.62 24.8
-6 1 -22 85.75 19.77
-6 1 -23 45.57 19.4
-6 1 -23 24.94 22.51
-6 1 -24 32.83 20.1
-6 1 -24 33.33 24.02
-6 1 -25 21.38 19.94
-6 1 -25 17.94 24.68
-6 1 -26 45.92 21.03
-6 1 -26 51.81 26.72
-6 1 -27 31.52 27.2
-6 -2 -27 -9.88 20.76
-2 6 -27 17.36 27.46
-6 -2 -27 39.57 27.04
-6 -2 -26 26.81 21.16
-2 6 -26 10.4 27
-6 -2 -26 33.19 26.3
-6 -2 -25 -9.42 19.81
-2 6 -25 25.05 25.74
-6 -2 -25 -15.47 24.41
-6 -2 -24 38.51 19.89
-2 6 -24 -2.41 24.03
-6 -2 -24 22.39 24.08
-6 -2 -23 48.69 19.21
-2 6 -23 12.79 23.16
-6 -2 -23 14.36 23.06
-6 -2 -22 53.53 18.81
-6 -2 -22 34.23 22.7
-2 6 -22 35.73 23.11
-6 -2 -21 28.25 21.05
-6 -2 -21 27.27 17.49
-2 6 -21 31.03 22.46
-6 -2 -20 16.56 20.35
-2 6 -20 24.55 21.51
-6 -2 -20 10.52 16.89
-6 -2 -19 47.25 19.87
-2 6 -19 11.71 20.52
-2 6 -19 18.02 15.23
-6 -2 -19 45.55 16.62
-2 6 -18 130.77 16.29
-2 6 -18 103.68 20.69
-6 -2 -18 134.04 20.93
-6 -2 -18 163.32 18.68
-6 -2 -17 147.69 21.18
-2 6 -17 162.51 21.45
-2 6 -17 215.08 18.35
-6 -2 -17 213.38 19.97
-6 -2 -16 12.41 17.09
-2 6 -16 44.72 18.54
-2 6 -16 -0.62 13.78
-6 -2 -16 30.32 14.79
-6 -2 -15 21.21 14.68
-2 6 -15 -0.6 13.06
-2 6 -15 42.28 18.01
-6 -2 -15 30.37 16.91
2 -6 -15 0.59 13.16
2 6 15 24.56 14.57
-6 -2 -14 77.37 15.54
-2 6 -14 91.91 14.21
-2 6 -14 108.96 17.67
2 -6 -14 80.48 14.21
-6 -2 -14 93.57 17.85
2 6 14 94.18 15.06
-6 -2 -13 70.07 16.01
-6 -2 -13 65.51 14.14
-2 6 -13 66.41 12.47
2 -6 -13 101.66 14.26
2 6 13 91.04 13.87
-2 6 -13 75.67 16.97
6 2 -13 23.51 12.41
-2 6 -12 226.13 18.89
-2 6 -12 231.42 15.9
6 2 -12 80.24 13.07
-6 -2 -12 240.54 18.49
2 6 12 207.29 16.42
-6 -2 -12 264.73 17.94
2 -6 -12 221.07 16.69
-6 -2 -11 119.84 15.66
-2 6 -11 113.78 15.66
2 -6 -11 108.64 14.6
-6 -2 -11 139.63 14.63
-2 6 -11 131.07 13.39
2 6 11 129.53 14.23
-6 -2 -10 169.94 15.71
-2 6 -10 151.91 16.38
-6 -2 -10 154.24 14.94
2 -6 -10 142.42 15.08
2 6 10 170.47 14.79
-2 6 -10 153.05 13.68
-2 6 -9 280.13 16.76
2 -6 -9 282.33 17.96
2 6 9 260.25 17.23
-6 2 9 293.47 16.34
-6 -2 -9 260.64 17.93
-6 -2 -9 288.62 17.77
2 6 8 189.26 15.06
-6 -2 -8 210.19 15.06
-6 2 8 186.45 13.58
-2 6 -8 195.11 13.99
-6 -2 -8 195.7 15.6
2 -6 -8 187.62 15.55
-2 6 -7 1025.66 40.34
2 -6 -7 1023.22 41.07
-2 -6 7 1056.82 39.87
2 6 7 1022.85 40.6
-6 -2 -7 1019.37 40.75
-6 -2 -7 1092.34 41.16
2 6 6 326.6 17.1
6 -2 6 322.12 15.35
-2 -6 6 268.77 15.83
-2 6 -6 309.14 16.59
2 -6 -6 264.37 17.57
-6 -2 -6 296.39 16.86
-6 -2 -6 284.69 16.92
6 -2 5 460.59 19.87
2 -6 -5 452.23 21.94
-6 2 5 429.71 18
2 6 5 466.2 20.36
-6 -2 -5 449.91 21.2
-6 -2 -5 451.24 20.5
-2 6 -5 447.84 21.22
-2 -6 5 479.06 20.74
-6 -2 -4 1436.08 49.76
-2 -6 4 1310.16 49.26
-2 6 -4 1342.2 49.65
2 -6 -4 1310.36 50.28
-6 2 4 1307.36 47.41
6 -2 4 1353.71 48.77
-2 6 -4 1361.32 50.4
-6 -2 -4 1296.17 48.81
6 -2 3 12.55 7.33
-6 -2 -3 24.02 8.99
-2 6 -3 15.47 9.88
-2 -6 3 31.02 10.37
-6 2 3 16.05 6.99
6 2 -3 18.91 3.56
2 -6 -3 23.45 11.34
-2 6 -3 31.83 11.75
-6 -2 -3 24.5 8.33
-6 -2 -2 5.42 8.26
2 -6 -2 15.32 11.32
-2 -6 2 13.46 9.99
-6 2 2 21.53 7.56
6 2 -2 14.74 4.44
-2 6 -2 9.9 11.28
-6 -2 -2 7.4 7.03
-6 -2 -1 258.85 11.92
-2 6 -1 266.04 16.1
2 -6 -1 283.03 17.05
-2 -6 1 283.42 15.31
-6 2 1 263.75 12.61
-6 2 1 282.54 13.59
-2 -6 1 273.56 15.45
2 -6 -1 253.99 16.29
2 6 1 275.54 14.62
-6 -2 -1 288.23 13.26
6 2 -1 248.58 11.41
-6 -2 0 25.91 5.05
-6 -2 0 24.4 6.9
-6 2 0 28.85 8.75
2 -6 0 24.59 11.7
6 2 0 24.2 5.95
2 6 0 42.68 9.11
-2 -6 0 11.13 10.36
-2 -6 0 21.93 10.07
2 -6 0 16.27 12.54
-6 2 0 32.76 9.77
-6 2 0 21.53 7.12
-6 -2 1 305.83 13.03
2 -6 1 307.22 17.51
-6 2 -1 312.73 15.52
-2 6 1 285.22 15.39
-2 -6 -1 292.12 16.66
2 6 -1 312.63 15.27
-6 2 -1 318.91 14.77
6 2 1 299.21 13.57
6 -2 -1 280.41 15.99
2 -6 1 286.94 18.17
-6 2 -1 326.69 16.23
-6 2 -2 18.9 9.52
6 -2 -2 10.14 8.33
2 -6 2 9.73 11.52
6 2 2 14.37 6.93
-6 2 -2 7.61 8.2
-2 6 2 0.28 4.25
-2 -6 -2 15.27 10.78
2 6 -2 1.92 8.24
6 -2 -2 25.9 10.15
-6 -2 2 3.23 4.73
-2 6 3 24.3 9.34
2 -6 3 30.14 11.58
6 -2 -3 36.43 8.7
6 2 3 10.4 7.23
2 6 -3 24.93 7.5
-2 6 3 -3.75 3.46
-2 -6 -3 31.79 10.98
6 -2 -3 36.23 10.42
2 6 -3 20.94 8.36
-6 2 -3 27.62 9.24
-6 -2 4 1181.03 41.97
2 -6 4 1309.42 46.69
6 -2 -4 1266.28 43.52
2 6 -4 1243.01 44.08
-2 -6 -4 1269.69 45.97
6 2 4 1274.22 43.95
2 6 -4 1317.5 44.39
-2 6 4 1333.13 45.19
6 2 4 1277.08 44.23
-6 2 -4 1364.05 45.44
6 2 5 472.14 20.01
6 -2 -5 447.57 18.89
2 -6 5 466.77 22.95
2 6 -5 489.81 19.72
-2 6 5 449.47 20.28
-2 -6 -5 456.19 22.44
-2 6 5 448.01 21.13
-6 -2 5 457.46 17.66
6 2 5 450.94 19.81
-6 2 -5 449.64 21.23
6 -2 -6 258.41 13.28
-6 2 -6 273.33 17.01
2 6 -6 288.3 14.09
-6 -2 6 269.79 12.41
6 2 6 261.9 14.76
-2 6 6 265.26 16.44
-2 -6 -6 277.13 17.62
-6 2 -6 276.46 16.22
6 2 6 280.12 14.47
-6 -2 7 1014.21 39.02
-6 2 -7 1088.11 42.54
6 2 7 1066.92 40.77
2 6 -7 1089.42 40.1
6 -2 -7 1079.53 39.27
-6 2 -7 1142.61 42.17
-2 6 7 1106.84 42.03
6 -2 -8 167.68 10.88
2 6 -8 162.09 11.61
-2 6 8 151.01 14.68
2 6 -8 184.59 11.21
-6 2 -8 162.28 13.92
6 2 8 193.33 13.25
-6 2 -8 170.35 15.2
2 6 -8 178.02 12.63
2 6 -9 234.41 13.95
-6 2 -9 244.04 17.84
6 -2 -9 251.7 13.15
6 2 9 239.42 13.88
2 6 -9 245.66 15.19
2 6 -9 251.53 13.55
-2 6 9 239.28 17.29
-6 2 -9 245.48 16.49
2 6 -10 161.9 11.41
-6 2 -10 159.04 16.28
2 6 -10 137.37 13.79
-6 2 -10 163.45 14.81
6 2 10 165.49 11.73
-2 6 10 168.49 16.03
2 6 -11 118.13 11.06
6 2 11 125.08 11.19
2 6 -11 143.32 13.83
-6 2 -11 126.1 15.99
-6 2 -11 126.36 14.22
2 6 -12 221.76 14.28
6 2 12 261.85 15.04
2 6 -12 279.73 18.38
-6 2 -12 263.09 18.07
-6 2 -12 262.39 19.41
2 6 -13 55.9 10.05
-6 2 -13 87.77 14.82
6 2 13 68.27 11.19
-6 2 -13 97.17 16.38
2 6 -13 135.45 15.35
-6 2 -14 53.98 16.33
2 6 -14 76.65 15.72
-6 2 -14 69.17 14.89
-6 2 -15 8.85 17.06
2 6 -15 27.88 16.6
-6 2 -15 13.95 14.76
-6 2 -16 45.28 15.22
2 6 -16 37.72 17.48
-6 2 -16 24.65 17.93
-6 2 -17 146.79 18.5
-6 2 -17 172.81 21.82
2 6 -17 172.42 21
-6 2 -18 125.29 18.68
2 6 -18 136.4 21.36
-6 2 -18 131.13 21.74
-6 2 -19 19.78 16.34
2 6 -19 -0.87 19.3
-6 2 -19 -12.97 19.47
-6 2 -20 10.31 17
2 6 -20 24.75 20.96
-6 2 -20 28.32 21.12
-6 2 -21 42.97 17.91
-6 2 -21 -2.19 21.16
-6 2 -22 61.8 19.03
-6 2 -22 10.33 22.28
-6 2 -23 28.4 19.5
-6 2 -23 7.21 23.36
-6 2 -24 -23.12 20.11
-6 2 -24 -4.99 24
-6 2 -25 38.64 25.24
-6 2 -25 22.58 20.78
-6 2 -26 46.61 26.4
-6 2 -26 34.52 20.7
-6 2 -27 -5.5 26.79
-6 -3 -27 30.09 22.05
-6 -3 -27 1.35 25.84
-3 6 -27 62.71 29.35
-6 -3 -26 34.83 21.43
-6 -3 -26 55.36 26.67
-3 6 -26 27.77 27.5
-6 -3 -25 2.12 19.97
-6 -3 -25 -1.28 24.85
-3 6 -25 1.27 26.05
-6 -3 -24 44.33 19.36
-6 -3 -24 28.57 24.05
-3 6 -24 22.19 25.35
-6 -3 -23 45.98 19.62
-6 -3 -23 57.49 24.17
-3 6 -23 58.24 24.9
-6 -3 -22 44.48 19.61
-6 -3 -22 51.83 23.01
-3 6 -22 35.49 23.8
-6 -3 -21 12.11 17.82
-6 -3 -21 9.91 21.39
-3 6 -21 -19.76 21.98
-6 -3 -20 -26.29 21.53
-6 -3 -20 8.91 16.93
-3 6 -20 -14.7 21.48
-3 6 -20 14.44 16.85
-6 -3 -19 34.84 20.4
-6 -3 -19 40.92 16.94
-3 6 -19 37.28 21.15
-3 6 -19 30.24 15.99
-6 -3 -18 60.17 19.84
-6 -3 -18 54.79 17.05
-3 6 -18 102.62 16.78
-3 6 -18 78.62 20.53
-6 -3 -17 26.65 15.67
-3 6 -17 74.79 20.46
-3 6 -17 81.06 15.79
-6 -3 -17 51.56 19.07
-6 -3 -16 120.03 17.94
3 6 16 115.57 16.32
-3 6 -16 135.74 19.96
-6 -3 -16 86.21 19.4
-3 6 -16 93.99 15.55
-6 -3 -15 222.24 18.18
-3 6 -15 168.39 16.43
-3 6 -15 188.07 20.06
-6 -3 -15 163.57 19.2
3 6 15 168.05 16.38
-6 -3 -14 184.62 17.44
3 -6 -14 146.04 14.86
-3 6 -14 148.02 16.04
-3 6 -14 138.17 19.35
-6 -3 -14 131.44 18.44
3 6 14 120.39 15.82
-6 -3 -13 21.87 13.58
3 -6 -13 23.54 12.73
-3 6 -13 34.38 12.81
3 6 13 28.08 13.04
-6 -3 -13 41.03 14.94
-3 6 -13 29.04 16.09
-3 6 -12 3.8 11.64
-3 6 -12 25.05 15.26
3 -6 -12 25.42 12.65
-6 -3 -12 19.43 12.84
3 6 12 27.43 12.5
-6 -3 -12 3.8 13.89
-3 6 -11 61.02 12.4
-3 6 -11 48.39 14.69
3 -6 -11 60.1 13.32
-6 -3 -11 82.78 13.51
3 6 11 66.46 12.52
-6 -3 -11 76.55 14.29
6 3 -11 26.7 8.89
-3 6 -10 131.85 13.07
-3 6 -10 128.47 15.91
-6 -3 -10 123.81 14.09
3 -6 -10 125.52 14.25
3 6 10 151.12 13.79
6 3 -10 46.36 8.67
-6 -3 -10 109.33 14.68
-6 -3 -9 725.56 24.37
3 -6 -9 719.99 23.72
3 6 9 707.99 23.57
-6 -3 -9 789.97 24.56
-3 6 -9 777.44 23.82
-6 -3 -8 115.78 13.15
-3 6 -8 92.06 12.07
3 -6 -8 91.78 13.22
-6 -3 -8 94.96 13.08
3 -6 -7 815.56 34.45
3 6 7 857.38 34.08
-6 -3 -7 860.99 34.42
-3 -6 7 807.35 32.86
-6 -3 -7 876.07 34.71
-3 6 -7 847.44 34.27
3 -6 -6 219.78 15.79
-6 3 6 242.19 12.23
3 6 6 234.24 15.14
-6 -3 -6 246.22 15
-3 -6 6 243.84 14.07
-6 -3 -6 220.35 15.34
-3 6 -6 225.3 14.94
3 -6 -5 463.48 21.96
-6 3 5 438.53 18.66
-6 -3 -5 451.08 20.53
3 6 5 460.47 20.86
3 6 5 454.27 20.38
-6 -3 -5 446.1 21.23
-3 -6 5 448.04 20.19
-3 6 -5 463.82 21.34
-3 6 -4 100.36 12.84
-6 3 4 72.61 8.13
3 6 4 77.99 10.14
-6 -3 -4 78.07 9.61
3 6 4 39.11 9.06
-6 -3 -4 40.09 9.76
6 3 -4 11.58 2.6
3 -6 -4 75.05 11.86
-3 -6 4 77.33 10.25
-3 -6 3 14.34 9.69
3 -6 -3 5.34 11.02
-6 3 3 6.56 7.48
-6 -3 -3 6.52 8.13
6 3 -3 2.24 3.41
-6 -3 -3 0.58 8.68
-3 6 -3 10.32 11.5
6 -3 2 1656.42 55.62
-6 -3 -2 1555.01 56.76
-6 -3 -2 1627.17 57.94
6 3 -2 1555.8 56.01
3 -6 -2 1605.98 60.18
3 -6 -2 1579.18 59.31
-6 3 2 1590.4 57.4
-3 -6 2 1650.68 58.35
-6 3 1 735.5 29.33
3 -6 -1 763.54 31.52
-3 -6 1 755.43 30.25
-3 6 -1 759.91 30.27
-6 -3 -1 837.2 29.35
6 3 -1 748.99 27.82
-3 -6 1 784.25 29.69
-6 -3 -1 747.81 27.75
3 -6 -1 704.39 32.22
-6 3 0 259.68 14.32
3 -6 0 230.07 16.53
-3 -6 0 242.36 13.36
3 6 0 231.69 12.63
-3 -6 0 243.02 14.14
-6 -3 0 264.82 11.64
6 3 0 219.88 10.48
-6 3 0 253.45 12.99
3 -6 0 260.12 15.57
6 -3 -1 757.75 16.53
3 -6 1 753.59 18.98
-6 3 -1 755.55 16.21
3 -6 1 764.38 20.29
-6 3 -1 770.68 17.57
6 -3 -1 692.72 17.68
-3 -6 -1 794.51 17.88
3 6 -1 761.55 15.42
6 3 1 738.62 13.35
-3 6 1 756.45 14.67
-6 3 -1 777.37 15.42
6 3 2 1582.99 52.33
-6 3 -2 1664.33 54.49
6 -3 -2 1617.57 53.9
3 -6 2 1637.29 55.69
-3 6 2 1617.13 53.71
3 6 -2 1669.17 53.6
-3 -6 -2 1701.12 55.12
6 3 2 1612.96 53.18
-6 3 -2 1631.64 54.09
-6 3 -2 1661.41 54.78
6 -3 -2 1615.6 55.03
6 -3 -3 -9.52 11.34
3 6 -3 1.22 7.89
-3 -6 -3 10.81 11.18
-6 -3 3 6.12 5.3
3 6 -3 -11.13 7.67
-3 6 3 4.09 8.29
6 3 3 9.97 7.47
6 3 3 2.99 7.24
3 -6 3 -5.81 12.11
-6 3 -3 10.85 9.69
6 -3 -3 1.19 9.23
-3 6 3 33.48 9.53
-6 3 -3 15.55 8.75
-6 3 -4 59.68 10.07
-3 -6 -4 57.92 12.02
6 3 4 90.74 8.97
-6 3 -4 75.6 10.42
6 -3 -4 85.09 9.97
3 -6 4 82.22 13.66
-6 -3 4 66.22 5.17
6 3 4 56.61 8.61
3 6 -4 46.92 8.27
-3 6 4 60.65 9.73
-3 6 4 56.12 10.36
3 6 -4 83.21 9.28
3 6 -5 393.02 18.52
6 3 5 406.39 18.75
6 3 5 426.66 19.01
6 -3 -5 434.69 18.78
3 -6 5 390.22 22.23
3 6 -5 419.68 18.33
-3 6 5 416.36 19.34
-3 6 5 469.36 20.45
-6 3 -5 450.31 20.48
6 -3 -6 219.11 12.56
3 6 -6 201.46 12.12
6 3 6 201.11 12.92
6 3 6 179.08 12.29
-3 6 6 186.23 14.36
-3 6 6 213.52 13.1
-6 3 -6 194.26 14.02
3 6 -7 784.08 31.51
-6 3 -7 814.04 33.09
6 -3 -7 780.54 30.95
3 6 -7 791.05 30.86
-3 6 7 814.66 33.18
6 3 7 836.7 31.93
6 -3 -8 89.15 10.2
3 6 -8 95.6 9.65
-3 6 8 81.12 13.45
-6 3 -8 81.16 12.09
3 6 -8 101.29 10.86
6 3 8 101.51 11.05
-6 3 -8 106.63 14.12
3 6 -8 81.64 9
6 -3 -9 750.45 29.51
-6 3 -9 748.56 33.16
3 6 -9 736.74 30.77
3 6 -9 747.8 29.24
-6 3 -9 752.8 32.06
6 3 10 149.18 12.34
-6 3 -10 167.04 14.84
-6 3 -10 156.79 16.39
3 6 -10 158.45 13.28
3 6 -10 144.49 10.91
6 3 11 59.58 10.31
3 6 -11 39.22 11.13
-6 3 -11 67.57 12.92
-6 3 -11 80.16 15.04
3 6 -11 52.54 9
3 6 -12 41.69 11.92
-6 3 -12 29.81 14.8
-6 3 -12 4.66 12.52
6 3 12 13.73 9.94
-6 3 -13 41.94 16.12
3 6 -13 29.6 13.59
-6 3 -13 52.75 13.76
6 3 13 58.03 11.2
3 6 -14 142.48 17.31
-6 3 -14 143.73 19
-6 3 -14 154.34 16.58
6 3 14 138.49 13.8
-6 3 -15 158.03 19.82
3 6 -15 164.37 18.79
-6 3 -15 120.31 17.14
3 6 -16 103.68 18.89
-6 3 -16 176.91 21.04
-6 3 -16 107.7 17.1
-6 3 -17 41.38 19.27
-6 3 -17 61.19 16.64
-6 3 -18 43.46 20.25
-6 3 -18 50.03 17.32
-6 3 -19 25.36 20.63
-6 3 -19 44.91 17.29
-6 3 -20 19.17 20.66
-6 3 -20 10.4 17.02
-6 3 -21 12.23 21.74
-6 3 -21 20.62 17.6
-6 3 -22 51.05 23.98
-6 3 -22 71.56 19.57
-6 3 -23 55.34 24.07
-6 3 -23 53.05 19.67
-6 3 -24 21.4 24.25
-6 3 -24 -2.01 19.09
-6 3 -25 -24.83 25.67
-6 3 -25 59.3 21.72
-6 3 -26 -4.03 25.68
-6 3 -27 -8.29 26.83
-4 6 -27 -4.16 28.27
-6 -4 -27 8.99 21.65
-4 6 -26 26.77 27.11
-6 -4 -26 23.19 21.77
-6 -4 -25 45.44 21.28
-4 6 -25 50.62 27.39
-6 -4 -25 91.78 26.05
-6 -4 -24 14.72 19.87
-4 6 -24 31.47 25.29
-6 -4 -24 48.1 24.96
-6 -4 -23 40.77 19.63
-4 6 -23 13.38 24.96
-6 -4 -23 35.77 23.14
-4 6 -22 2.34 22.83
-6 -4 -22 5.92 18.62
-6 -4 -22 36.8 23.05
-4 6 -22 19.72 17.92
-4 6 -21 51.43 18.11
-6 -4 -21 60.01 18.86
-4 6 -21 58.49 23.09
-6 -4 -21 51.94 21.91
-4 6 -20 98.36 18.45
-6 -4 -20 88.94 19.13
-4 6 -20 44.3 22.23
-6 -4 -20 75 22.36
-4 6 -19 39.7 16.61
-6 -4 -19 -30.9 17.47
-4 6 -19 -20.57 21.05
-6 -4 -19 -4.03 20.55
-4 6 -18 60.03 16.12
-6 -4 -18 41.2 20.14
-6 -4 -18 34.75 16.93
-4 6 -18 42.78 19.75
4 6 17 211.38 18.81
-4 6 -17 185.27 18.43
-6 -4 -17 212.24 22.72
-6 -4 -17 182.34 20.26
-4 6 -17 161.06 21.92
4 6 16 -1.91 14.18
-4 6 -16 36.06 14.88
-4 6 -16 28.34 18.27
-6 -4 -16 -3.43 18.33
-6 -4 -16 43.95 15.7
-4 6 -15 25.21 17.64
4 6 15 14.96 13.51
-4 6 -15 -17.39 14.61
-6 -4 -15 -29.81 17.97
-6 -4 -15 -3.66 14.59
-4 6 -14 37.44 17.43
4 -6 -14 36.74 10.58
-6 -4 -14 45.96 15.02
4 6 14 71.95 14.41
-6 -4 -14 50.41 17.21
-4 6 -14 82.13 14.54
-4 6 -13 271.81 18.77
4 -6 -13 333.9 17.82
-4 6 -13 214.3 21.52
-6 -4 -13 228.26 20.86
-6 -4 -13 252.32 19.77
4 6 13 248.06 18.08
4 6 12 611.43 28.06
-4 6 -12 600.62 28.56
4 -6 -12 658.1 28.17
-4 6 -12 580.3 30.94
-6 -4 -12 586.36 30
-6 -4 -12 600.42 29.39
-6 -4 -11 133.21 14.85
-4 6 -11 133.28 17.09
-6 -4 -11 115.66 15.76
-4 6 -11 139.03 14.4
4 6 11 108.36 13.69
4 -6 -11 156.22 14.73
4 -6 -10 22.03 12.25
-4 6 -10 32.39 11.87
-6 -4 -10 24.75 13.65
4 6 10 33.03 12.18
-6 -4 -10 34.75 12.73
4 -6 -9 584.38 26.77
-6 -4 -9 599.14 27.85
-4 6 -9 590.98 27.05
-6 -4 -9 608.86 27.77
-6 -4 -8 10.65 11.07
-6 -4 -8 15.9 11.69
4 -6 -8 16.77 11.44
-4 6 -8 13.09 10.68
-6 -4 -7 220.57 14.61
-4 6 -7 230.33 14.37
4 -6 -7 211.45 14.4
4 6 7 208.38 13.5
-6 -4 -7 195.52 14.2
-4 -6 7 221.08 12.04
-4 6 -6 92.64 11.98
-4 -6 6 95.85 9.91
4 -6 -6 109.87 12.8
-6 4 6 92.62 9.4
-6 -4 -6 93.36 12.12
4 6 6 109.32 11.49
-6 -4 -6 95.97 12.21
-4 -6 5 62.69 9.21
4 -6 -5 58.81 11.78
-6 4 5 48.06 8.52
4 6 5 51.2 10.3
-6 -4 -5 58.97 10.6
-6 -4 -5 44.37 10.63
6 4 -4 1310.68 47.07
-6 -4 -4 1380.56 50.39
4 6 4 1334.65 49.72
-4 -6 4 1381.5 49.2
-6 -4 -4 1345.64 49.36
4 6 4 1345.71 49.58
4 -6 -4 1401.21 50.95
-6 4 4 1355.39 48.84
-4 6 -3 344.4 17.74
4 6 3 334.21 16.39
6 4 -3 342.22 13.5
-6 -4 -3 354.61 17.37
4 6 3 321.58 16.41
4 -6 -3 324.85 18.64
-4 -6 3 343.58 16.47
-6 4 3 347.79 16.2
-4 -6 2 154.8 11.88
-6 4 2 140.72 10.97
-4 6 -2 149.4 11.67
4 -6 -2 150.11 14.21
4 -6 -2 161.54 15.63
6 4 -2 156.15 8.31
-6 -4 -2 139.07 11.37
4 6 2 150.7 11.07
6 4 -1 686.85 12.32
-4 -6 1 747.23 16.38
-4 6 -1 713.61 12.45
6 -4 1 701.39 10.47
4 -6 -1 703.79 20.29
-4 -6 1 708.1 14.21
4 -6 -1 686.64 18.51
-6 4 1 706.47 15.55
6 4 0 16.44 6.67
6 -4 0 17.82 10.82
4 -6 0 17.64 11.67
-4 6 0 -0.62 5.56
-6 4 0 17.76 8.99
4 -6 0 20.84 13.07
-6 4 0 25.57 10.86
-4 -6 0 8.89 10.12
6 -4 0 15.13 5.3
-4 6 0 15.08 6.95
6 4 0 11.45 4.51
6 -4 -1 666.23 29.69
-6 4 -1 713.99 29.24
6 4 1 691.52 25.72
6 4 1 674.06 26.93
-6 4 -1 714.63 28.37
6 -4 -1 704.64 28.9
4 -6 1 721.36 30.16
-4 6 1 702.06 28.02
-6 -4 1 696.22 26.87
-4 -6 -1 752.07 29
-4 6 1 700.28 27.08
6 -4 -1 709.06 26.27
6 4 2 176.74 9.69
6 4 2 161.57 10.43
6 -4 -2 140.36 9.48
-6 4 -2 163.9 12.25
4 -6 2 153.93 14.74
6 -4 -2 155.68 12.84
-6 -4 2 164.76 9.91
4 6 -2 174.23 10.59
-6 4 -2 171.88 11.9
-4 -6 -2 141.27 13.39
-4 6 2 151.51 11.68
6 -4 -2 148.04 14.11
-6 4 -2 191.16 13.92
-4 6 2 153.08 10.85
6 4 3 294.98 14.4
-6 4 -3 325.72 16.7
4 -6 3 323.05 19.24
6 -4 -3 347.85 16.8
-6 -4 3 313.62 13.55
-4 -6 -3 314.55 17.65
4 6 -3 295.19 14.49
-4 6 3 297.44 15.84
6 4 3 303.89 15
-6 4 -3 311.02 16.39
-6 4 -3 339.35 17.76
6 -4 -3 333.31 18.49
-4 6 3 294.81 15.7
6 -4 -3 323.18 14.53
6 4 4 1252.34 43.82
-4 6 4 1336.01 45.08
6 -4 -4 1229.94 43.78
6 -4 -4 1295.64 44.79
4 -6 4 1264.2 46.9
-6 -4 4 1255.44 42.32
-4 6 4 1254.56 44.63
4 6 -4 1344.4 43.68
-6 4 -4 1221.54 45.19
6 4 4 1258.67 44.24
4 6 -4 1177.71 43.15
6 4 5 58.88 9.33
6 4 5 75.47 9.17
-6 -4 5 60.81 6.07
6 -4 -5 51.63 10.4
6 -4 -5 64.51 8.48
-4 6 5 61.87 11.05
-4 6 5 54.17 9.61
4 6 -5 91.41 8.41
-6 4 -5 61.43 10.43
4 6 -5 56.65 8.56
-6 4 -6 105.56 11.75
6 -4 -6 100.69 11.2
6 -4 -6 100.16 9.54
-4 6 6 88.71 12.4
4 6 -6 98.98 8.99
-4 6 6 111.93 10.59
6 4 6 90.21 10.6
4 6 -7 219.28 13.36
6 4 7 209.87 13.8
-6 4 -7 208.01 15.08
6 -4 -7 209.04 13.8
-6 4 -8 3.79 10.54
4 6 -8 10.82 6.88
6 4 8 -7.33 9.96
4 6 -8 31.44 9.47
6 -4 -8 29.41 9.91
-6 4 -9 549.14 25.7
6 -4 -9 525.66 23.57
4 6 -9 513.78 23.67
-6 4 -9 534.42 27.25
4 6 -9 569.91 22.21
6 4 10 28.68 10.52
-6 4 -10 9.16 11.93
6 -4 -10 24.63 10.46
-6 4 -10 33.96 14.27
4 6 -10 9.54 10.1
4 6 -11 102.86 12.83
-6 4 -11 123.59 14.66
-6 4 -11 93.31 16.44
6 4 11 146.25 13.28
4 6 -12 610.27 28.58
-6 4 -12 665.41 31.96
6 4 12 651.34 27.84
-6 4 -12 626.61 29.81
-6 4 -13 273.59 19.16
4 6 -13 202.57 17.42
6 4 13 239.8 16.1
-6 4 -13 218.21 20.3
-6 4 -14 46.35 14.72
-6 4 -14 47.06 17.81
6 4 14 40.21 12.1
6 4 15 18.05 11.84
-6 4 -15 10.51 14.32
-6 4 -15 19.25 17.59
-6 4 -16 1.47 14.78
-6 4 -16 -21.17 18.6
-6 4 -17 161.89 19.34
-6 4 -17 187.1 22.39
-6 4 -18 42.8 16.91
-6 4 -18 11.9 20.04
-6 4 -19 -12.81 16.18
-6 4 -19 -20.7 20.83
-6 4 -20 45.9 18.52
-6 4 -20 63.91 22.88
-6 4 -21 13.57 17.48
-6 4 -21 36.22 22.62
-6 4 -22 24.31 18.52
-6 4 -22 25.9 23.11
-6 4 -23 28.05 18.76
-6 4 -23 63.71 24.26
-6 4 -24 34.86 19.57
-6 4 -24 -30.37 25.25
-6 4 -25 55.68 21.05
-6 4 -25 91.98 27.09
-6 4 -26 8.18 27
-6 4 -27 18.14 27.35
-5 6 -26 31.27 27.36
-5 6 -25 29.14 26.31
-5 6 -24 23.1 25.33
-6 -5 -24 5.33 20.28
-5 6 -23 42.23 25.14
-6 -5 -23 55.08 20.65
-5 6 -23 51.77 19.5
-5 6 -22 122.03 20.56
-5 6 -22 92.15 25.52
-6 -5 -22 113.33 21.43
-5 6 -21 14.61 17.78
-5 6 -21 20.72 23
-6 -5 -21 39.18 18.54
-6 -5 -21 15.42 21.37
-5 6 -20 25.5 17.85
-5 6 -20 34.43 22.46
-6 -5 -20 -13.22 17.81
-6 -5 -20 15.83 21.11
-5 6 -19 4.16 15.95
-5 6 -19 37.79 21.44
-6 -5 -19 12.7 17.66
-6 -5 -19 -11.1 20.59
-5 6 -18 151.34 19.14
-5 6 -18 165.62 22.93
-6 -5 -18 129.88 19.8
-6 -5 -18 138.42 22.02
-6 -5 -17 71.23 20.18
-5 6 -17 68.34 16.02
-5 6 -17 57.43 20.29
5 6 17 57.73 14.91
-6 -5 -17 47.63 17.42
-6 -5 -16 79.98 17.28
-5 6 -16 102.06 20.85
-6 -5 -16 81.14 19.39
-5 6 -16 99.14 16.64
5 6 16 106.15 15.4
-6 -5 -15 295.61 22.51
-6 -5 -15 310.35 24.63
-5 6 -15 350.68 25.64
5 6 15 308.95 20.48
-5 6 -15 327.45 21.88
-5 6 -14 248.53 22.52
5 6 14 254.02 18.97
-6 -5 -14 249.59 21
-6 -5 -14 279.56 22.6
-5 6 -14 246.91 19.7
-5 6 -13 154.05 19.06
5 6 13 113.53 15.06
-6 -5 -13 111.69 18.53
-6 -5 -13 111.38 16.77
-5 6 -13 101.23 15.73
-6 -5 -12 4.59 13.28
-5 6 -12 18.47 15.93
-6 -5 -12 15.33 15.21
5 6 12 16.52 12.06
-5 6 -12 23.32 13.05
-6 -5 -11 65.8 14.41
-5 6 -11 57.15 15.9
5 6 11 55.35 12.47
-6 -5 -11 70.97 15.43
-5 6 -11 64.5 13.24
5 -6 -10 1509.39 55.72
-6 -5 -10 1437.05 57.15
-6 -5 -10 1487.54 57.2
-5 6 -10 1437.22 56.59
-6 -5 -9 161.11 15.76
-6 -5 -9 191.1 15.9
5 -6 -9 167.89 15.07
-5 6 -9 162.26 14.75
-5 6 -8 268.8 17.02
5 -6 -8 254.85 16.66
-6 -5 -8 243.6 17.4
-6 -5 -8 243.53 17.26
-6 -5 -7 323.85 18.38
5 -6 -7 280.15 18.01
-5 -6 7 310.08 15
-5 6 -7 323.68 18.14
5 6 7 312.71 16.76
-6 -5 -7 308.15 18.1
-5 -6 6 842.16 32.57
5 -6 -6 885.42 35.13
-6 5 6 871.09 33.13
5 6 6 857.79 33.78
-5 6 -6 872.71 35.37
-6 -5 -6 847.68 35.18
-5 -6 5 163.72 11.3
6 5 -5 233.07 8.72
5 6 5 146.71 11.78
5 -6 -5 137.44 14.15
-6 5 5 158.78 11.76
5 -6 -5 168.44 11.37
-6 -5 -5 149.94 13.77
-5 6 -5 166.19 13.68
5 6 4 82.8 9.93
-5 -6 4 91.21 9.93
5 -6 -4 86.46 12.54
-6 5 4 75.56 9.93
6 5 -4 148.4 6.05
5 6 4 69.83 9.45
5 -6 -3 137.43 14.68
-6 5 3 122.99 9.61
-5 -6 3 116.87 9.73
5 -6 -3 108.74 12.58
6 5 -3 131.53 6.85
5 6 3 129.8 9.57
5 6 3 99.87 8.45
5 -6 -2 815.33 19.14
-6 5 2 798.25 15.92
-5 -6 2 805.02 15.54
6 5 -2 783.92 12.45
5 6 2 803.11 15.49
5 6 2 758.96 13.39
5 -6 -2 790.87 21.21
6 5 -1 974.73 38.01
5 6 1 1354.52 41.31
6 5 -1 1334.9 40.23
5 -6 -1 1324.55 43.48
6 -5 1 1271.51 43.39
-5 6 -1 963.08 40.95
-6 5 1 1266.69 41.59
-5 -6 1 1376.03 41.71
-5 6 -1 1318.4 39.42
5 -6 -1 1320.1 44.68
-5 -6 1 1273.78 39.83
6 -5 0 97.93 13.94
-6 5 0 94.5 12.51
5 -6 0 84.12 14.38
-5 -6 0 106.29 11.38
5 -6 0 98.52 13.16
6 -5 0 91.88 12.95
-5 6 0 86.51 10.61
-6 5 0 92.67 10.84
-6 -5 0 94.41 10.76
6 5 0 107.21 8.7
-5 6 0 101.26 7.85
6 5 0 113.23 6.29
6 5 1 1285.77 46.53
5 -6 1 1262.42 50.26
6 -5 -1 1295.16 49.65
-6 5 -1 1301.96 48.85
-5 6 1 1244.46 48.64
-6 -5 1 1368.65 47.98
-5 -6 -1 1389 49.3
6 5 1 1327.89 47.83
6 -5 -1 1333.02 47.07
-5 6 1 1350.26 47.64
6 -5 -1 1293.78 50.64
-6 5 -1 1312.72 49.86
6 5 2 685.57 25.9
6 5 2 669.9 27.13
-6 5 -2 707.22 28.45
5 -6 2 696.8 30.32
6 -5 -2 710.34 29.11
-5 6 2 712.56 28.08
-6 -5 2 719.85 26.96
-5 -6 -2 698.24 28.94
-5 6 2 702.52 27.39
6 -5 -2 647.39 30.18
-6 5 -2 680.58 29.22
6 -5 -2 649.91 26.25
-6 5 -3 116.92 11.42
6 5 3 117.71 9.92
5 -6 3 128.93 14.81
6 -5 -3 113.71 12.72
-6 5 -3 112.5 10.91
6 5 3 129.71 8.76
-6 -5 3 120.2 9.2
-5 6 3 127.8 10.78
6 -5 -3 98.28 14.44
-6 5 -3 70.64 10.75
6 -5 -3 118.42 8.85
6 5 4 79.53 9.37
-6 -5 4 80.36 8.04
6 -5 -4 104.38 11.81
-6 5 -4 99.91 11.34
6 -5 -4 88.66 8.52
6 5 4 95.81 8.58
5 6 -4 59.79 7.82
-5 6 4 63.47 9.98
-6 -5 5 149.97 9.66
6 5 5 186.06 11.55
6 -5 -5 182.7 13.73
5 6 -5 171.62 10.51
6 -5 -5 202.58 11.25
-5 6 5 167.89 12.18
-6 5 -5 166.13 13.47
-6 5 -6 854.78 34.62
6 5 6 880.91 33.08
5 6 -6 839.52 31.84
6 -5 -6 851.97 33.92
-5 6 6 798.61 32.95
-6 5 -7 359.2 19.02
6 5 7 339.96 17.41
5 6 -7 325.47 16.22
6 -5 -7 361.61 18.45
-5 6 7 339.72 17.01
-6 5 -8 287.07 17.01
6 -5 -8 241.53 15.63
5 6 -8 237.27 14.05
-6 5 -9 145.93 15.14
6 -5 -9 183.77 14.22
-6 5 -10 1452.63 54.89
6 -5 -10 1399.27 53.18
-6 5 -10 1377.5 56.27
-6 5 -11 59.94 13.22
-6 5 -11 73.94 16.1
6 5 11 52.7 12.09
-5 -6 -12 19.07 13.86
-6 5 -12 23.08 13.7
-6 5 -12 19 15.32
6 5 12 22.01 11.79
-5 -6 -13 99.67 16.05
-6 5 -13 120.99 15.77
-6 5 -13 83.66 18.22
6 5 13 70.58 12.94
-5 -6 -14 196.17 18.72
-6 5 -14 166.73 17.82
-6 5 -14 219.35 21.95
6 5 14 194.1 16.61
-5 -6 -15 281.64 21.41
-6 5 -15 265.14 20.62
6 5 15 252.85 18.48
-6 5 -15 275.16 24.18
-5 -6 -16 66.06 17.07
6 5 16 108.1 14.95
-6 5 -16 108.21 17.01
-6 5 -16 75.45 19.71
-6 5 -17 28.23 15.92
-5 -6 -17 48.16 17.33
-6 5 -18 209.05 24.55
-6 5 -18 207.62 20.47
-6 5 -19 -4.24 20.36
-6 5 -19 46.98 17.57
-6 5 -20 18.83 21.86
-6 5 -20 11.71 17.64
-6 5 -21 -8.08 22.53
-6 5 -21 0.93 17.61
-6 5 -22 31.17 23.51
-6 5 -22 90.38 19.81
-6 5 -23 26.12 24.24
-6 5 -23 50.91 19.27
-6 5 -24 46.35 25.82
-6 5 -24 56.21 20.64
-6 5 -25 -1.33 25.51
-6 5 -25 4.12 19.89
-6 5 -26 -6.85 26.86
-6 6 0 1300.59 48.01
6 -6 0 1286.8 49.36
-6 -6 0 1364.33 47.94
6 6 0 1254.5 46.77
6 -6 0 1171.26 49.88
-6 6 1 794.26 30.59
-6 -6 1 777.17 30.17
-6 -6 -1 779.11 30.86
6 -6 1 734.44 32.49
6 -6 -1 764.88 32.04
6 -6 -1 779.94 33.31
-6 -6 1 692.55 27.73
6 6 -1 776.65 29.16
6 6 1 808.38 29.63
6 6 2 45.18 8.31
-6 6 2 38.01 9.51
-6 -6 2 37.65 9.1
6 -6 -2 27.72 13.21
6 -6 2 38.49 13.23
6 -6 -2 42.23 11.85
-6 -6 -2 28.36 10.87
6 -6 -3 396.91 17.27
-6 -6 3 401.63 13.99
-6 6 3 363.57 14.67
6 6 3 429.46 14.73
6 -6 -3 373.68 19.39
6 -6 -3 421.37 13.55
-6 6 -4 77.17 11.44
-6 -6 4 85.59 9.22
6 -6 -4 76.26 12.54
6 6 4 88.95 7.66
-6 6 4 73.87 10.17
6 -6 -4 79.15 8.63
6 -6 -4 72.06 14.51
-6 -6 5 148.35 10.4
-6 6 5 152.9 11.64
6 -6 -5 136.36 14.28
-6 6 -5 119.15 13.22
6 6 5 161.13 10.35
6 -6 -5 152.93 10.61
6 6 6 308.15 16.09
-6 6 -6 357.13 18.74
6 -6 -6 333.98 18.77
-6 6 6 304.49 16.27
6 -6 -7 11.99 11.65
-6 6 -7 13.5 10.88
6 6 7 -4.02 8.25
6 -6 -8 326.98 19.11
-6 6 -8 334.9 19.28
6 -6 -9 64.8 12.69
-6 6 -9 42.66 12.46
-6 6 -10 35.83 12.96
6 -6 -10 54.12 13
-6 -6 -10 47.46 13.81
-6 -6 -11 63.88 14.64
-6 6 -11 55.39 16.5
-6 6 -11 75.66 13.97
6 6 11 70.71 13.05
6 -6 -11 57.06 13.1
-6 6 -12 555.26 30.25
-6 6 -12 562.1 28.16
6 6 12 535.78 26.63
-6 -6 -12 566.07 28.66
-6 6 -13 861.56 41.48
-6 -6 -13 934.59 40.5
-6 6 -13 865.32 39.18
6 6 13 924.91 38.04
-6 6 -14 26.96 14.93
6 6 14 17.94 13.36
-6 6 -14 7.73 18.1
-6 -6 -14 10.63 15.25
-6 6 -15 19.87 15.35
6 6 15 21.17 12.97
-6 6 -15 37.57 19.05
-6 -6 -15 16.68 15.81
-6 6 -16 71.68 16.38
6 6 16 51.95 14.62
-6 -6 -16 57.26 16.95
-6 6 -16 60.81 19.7
-6 6 -17 96.96 16.89
-6 -6 -17 103.65 18.9
-6 6 -17 95.74 20.95
6 6 17 84.48 15.44
-6 6 -18 43.37 20.94
-6 -6 -18 33.2 18.12
-6 6 -19 57.94 21.56
-6 -6 -19 18.63 17.62
-6 6 -19 22.57 16.51
-6 6 -20 -4.54 22.38
-6 -6 -20 6.75 17.92
-6 6 -20 15.59 17.62
-6 6 -21 53.3 19.05
-6 6 -21 58.97 24.12
-6 6 -22 -6.83 18.73
-6 6 -22 -26.92 24.15
-6 6 -23 11.39 24.04
-6 6 -23 8.97 19.33
-6 6 -24 10.48 25.85
-6 6 -24 75.07 21.31
-6 6 -25 43.15 27.33
-6 6 -26 2.77 27.08
0 -7 0 6.96 11.87
-7 0 0 3.05 7.04
0 7 0 8.33 9.31
0 -7 0 10.49 12.29
-7 0 0 2.06 7.85
7 0 0 -1.41 5.89
0 -7 -1 370.54 20.57
0 7 -1 364.82 18.68
0 -7 1 414.63 20.6
0 7 1 400.75 18.78
7 0 1 388.53 16.56
0 -7 -1 397.86 20.8
0 -7 1 435.68 21.13
-7 0 -1 409.72 17.41
-7 0 1 382.25 16.25
-7 0 2 91.35 7.88
0 -7 2 101.37 13.33
-7 0 2 88.71 6.96
-7 0 -2 92.09 9.5
0 -7 -2 84.72 13.29
0 7 -2 84.19 11.05
0 7 -2 94.29 12.53
7 0 2 116.16 8.6
-7 0 3 211.91 10.35
0 7 -3 230.29 14.31
0 -7 3 219.36 15.72
0 -7 -3 228.19 16.23
0 7 -3 215.88 15.04
7 0 -3 201.74 12.03
7 0 3 250.78 12.41
-7 0 -3 243.88 13.88
-7 0 3 238.15 10.13
-7 0 -3 232.33 13.27
-7 0 -4 268.4 15.01
0 -7 4 234.64 16.46
-7 0 4 241.74 10.69
0 7 -4 268.7 14.93
0 -7 -4 252.73 17.44
-7 0 -4 290.07 15.11
7 0 4 286.95 13.86
0 7 -4 266.05 15.9
-7 0 4 260.9 10.57
-7 0 -5 1550.21 51.14
0 7 -5 1552.54 50.78
0 -7 -5 1462.42 52.3
-7 0 5 1206.94 46.89
7 0 5 1439.92 49.98
0 7 -5 1558.96 51.28
-7 0 -5 1536.5 51.42
0 -7 5 1587.93 51.99
0 7 -6 420.17 20.3
0 -7 6 427.65 22.09
-7 0 6 429.23 19.01
0 -7 -6 477.79 23.15
-7 0 -6 448.77 21.55
-7 0 -6 514.88 22.12
0 7 7 2.91 11.33
0 7 -7 15.07 9.02
0 -7 -7 17.04 12.61
-7 0 -7 5.81 10.69
0 -7 7 2.53 11.72
-7 0 -7 16.6 11.11
0 -7 -8 118.97 14.72
-7 0 -8 120.35 13.46
7 0 8 123.92 8.51
0 7 8 89.39 13.35
0 7 -8 114.31 11.31
-7 0 -8 109.83 13.77
0 -7 -9 132.99 15.41
-7 0 -9 164.69 14.55
-7 0 -9 152.09 15.02
0 7 9 154.5 14.74
0 7 -9 154.86 12.43
0 7 -10 156.82 15.92
0 -7 -10 186.76 16.69
-7 0 -10 221.52 17.21
0 7 10 155.13 15.32
-7 0 -10 180.07 15.9
0 7 -10 184.11 13.46
0 7 -11 9.88 13.51
0 -7 -11 -3.86 13.49
-7 0 -11 14.62 13.69
0 7 11 -1.58 12.22
-7 0 -11 -2.32 12.24
0 7 -11 1.81 9.34
0 7 -12 162.73 17.23
0 -7 -12 169.49 17.09
-7 0 -12 165.29 17.83
0 7 12 147.8 16.22
-7 0 -12 150.78 16.13
0 7 -12 186.19 13.96
0 7 -13 19.87 15.1
-7 0 -13 -22.72 14.09
0 -7 -13 7.27 14.2
-7 0 -13 5.61 14.52
0 7 13 -3.63 13.85
0 7 -13 42.62 11.03
-7 0 -14 67.01 14.5
0 -7 -14 53.23 15.7
0 7 -14 77.01 13.24
-7 0 -14 38.97 16.02
0 7 -14 40.5 17.13
0 7 14 75.52 15.72
0 7 -15 73.54 13.66
-7 0 -15 61.27 15.5
0 7 -15 74.33 17.74
-7 0 -15 51.96 18.02
-7 0 -16 161.21 18.48
-7 0 -16 153.51 20.62
0 7 -16 169.61 20.71
-7 0 -17 81.22 17.48
-7 0 -17 80.7 19.32
0 7 -17 92.22 19.73
-7 0 -18 -19.31 16.16
-7 0 -18 10.39 19.33
0 7 -18 27.87 20.22
-7 0 -19 74.2 18.29
0 7 -19 64.86 21.63
-7 0 -19 83.22 21.63
-7 0 -20 4.57 17.3
-7 0 -20 61.22 21.42
0 7 -20 41.5 22.23
-7 0 -21 18.87 17.79
-7 0 -21 -9.93 20.96
0 7 -21 29.01 21.97
-7 0 -22 18.36 21.89
-7 0 -22 26.31 18.61
0 7 -22 43.22 23.33
-7 0 -23 9.58 22.71
-7 0 -23 5 19.02
0 7 -23 23.61 23.82
-7 0 -24 -7.48 24.15
-7 0 -24 43.17 20.31
-7 0 -25 69.78 25.08
-7 0 -25 27.44 20.66
-7 0 -26 -4.01 25.78
-7 0 -26 34.57 20.92
-7 0 -27 13.81 26.9
-7 0 -27 1.1 21.34
-7 -1 -27 6.9 26.89
-7 -1 -27 -36.88 22.41
-7 -1 -26 -9.78 20.39
-7 -1 -26 1.34 25.62
-1 7 -26 7.71 26.97
-7 -1 -25 10.55 19.93
-7 -1 -25 24.6 25.11
-1 7 -25 48.22 26.67
-7 -1 -24 12.45 23.64
-7 -1 -24 12.35 19.68
-1 7 -24 14.33 25.38
-7 -1 -23 15.57 23.36
-7 -1 -23 40.12 19.42
-1 7 -23 20.75 24.22
-7 -1 -22 2.3 22.2
-7 -1 -22 9.72 18.16
-1 7 -22 16.63 22.95
-7 -1 -21 59.18 22.44
-7 -1 -21 66.71 18.4
-1 7 -21 88.11 23.44
-7 -1 -20 167.21 24.04
-7 -1 -20 178.84 21.24
-1 7 -20 185.89 25.33
-7 -1 -19 50.87 20.25
-1 7 -19 30.18 21.11
-7 -1 -19 27.25 16.98
-7 -1 -18 11.4 19.52
-1 7 -18 29.31 19.97
-7 -1 -18 31.25 16.95
-1 7 -17 203.65 17.77
-1 7 -17 147.46 21.33
-7 -1 -17 194.9 22.43
1 -7 -17 150.32 18.2
-7 -1 -17 169.79 19.54
-1 7 -16 110.31 15.69
-7 -1 -16 91.77 19.27
-1 7 -16 113.7 19.67
1 -7 -16 93.99 17.01
-7 -1 -16 93.43 17.26
-7 -1 -15 110.53 16.91
1 -7 -15 160.2 18.17
-1 7 -15 92.54 14.94
1 7 15 121.57 17.19
-1 7 -15 118.19 19.28
-7 -1 -15 161.31 19.68
-1 7 -14 18.36 16.89
-7 -1 -14 14.12 16.51
1 -7 -14 -8.01 14.6
-7 -1 -14 9.04 14.18
-1 7 -14 36.61 13.07
1 7 14 30.12 14.29
-1 7 -13 68.34 16.91
-7 -1 -13 112.09 15.67
-1 7 -13 92.7 12.92
1 -7 -13 96.64 16.01
-7 -1 -13 121.43 16.77
1 7 13 92.37 15.09
1 7 12 550.4 27.32
-1 7 -12 571.32 26.09
1 -7 -12 561.11 27.77
-1 7 -12 548.3 28.4
-7 -1 -12 552.31 27.58
-7 -1 -12 545.35 28.62
-7 -1 -11 121.29 15.43
-1 7 -11 133.65 16.32
1 -7 -11 129.59 15.71
-7 -1 -11 140.21 15.11
1 7 11 121.71 14.51
-1 7 -11 158.52 13.8
-1 7 -10 6.95 10.18
-7 -1 -10 18.55 12.06
1 -7 -10 13.48 12.85
1 7 10 2.93 12.24
-7 -1 -10 8.81 13.28
1 7 9 584.84 27.19
1 -7 -9 541.48 27.44
-7 -1 -9 581.44 27.61
-7 -1 -9 619.72 27.55
-1 7 -9 604.14 26.38
-7 -1 -8 121.34 13.39
1 -7 -8 105.76 14.46
1 7 8 98.94 13.33
-7 -1 -8 123.48 13.53
-1 7 -8 70.75 11.79
-1 -7 7 137.55 13.54
-7 1 7 132.96 11.29
-7 -1 -7 165.51 13.76
-7 -1 -7 148.3 13.6
1 -7 -7 132.69 14.44
-7 -1 -6 204.46 14.48
-7 -1 -6 196.48 14.28
1 -7 -6 176.69 15.75
-1 -7 6 216.12 15.11
-7 -1 -5 104.41 11.86
-7 -1 -5 107.7 11.47
-1 -7 5 114.59 12.58
-7 1 5 107.01 7.13
-1 7 -5 100.57 11.51
1 -7 -5 125.24 14.12
7 -1 5 109.55 10.05
-1 7 -5 142.99 13.69
-7 -1 -4 2530.64 87.93
-1 -7 4 2606.6 88.5
-1 7 -4 2465.25 87.86
-7 1 4 2486.65 85.47
1 -7 -4 2484.4 88.93
-7 1 4 2391.81 85.34
7 -1 4 2486.3 87.11
-1 7 -4 2592.24 88.58
7 1 -4 2410.37 85.67
-7 -1 -4 2426.39 87.29
1 7 3 100.71 10.96
-7 -1 -3 86.07 9.61
-7 -1 -3 78.69 10.1
-1 -7 3 77.39 12.16
-1 7 -3 87.85 11.28
-7 1 3 82.34 7.38
1 -7 -3 83.39 12.89
-7 1 3 62.54 6.47
7 -1 3 67.48 8.37
-1 7 -3 56.38 12.61
-7 1 2 191.65 10.62
-1 7 -2 187.32 14.95
7 1 -2 199.66 9.03
-7 1 2 212.82 10.28
7 -1 2 200.71 11.14
-1 7 -2 187.46 13.65
-1 -7 2 176.03 14.8
1 -7 -2 185.34 15.29
-7 -1 -2 174.92 11.39
1 7 2 180.48 13.16
-7 -1 -2 219.58 12.37
-7 1 1 153.54 10.46
-7 -1 -1 129.35 9.39
-7 1 1 160.86 9.74
1 7 1 185.13 12.58
-1 -7 1 154.71 13.85
1 -7 -1 151.83 14.3
7 1 -1 154.09 8.41
-1 7 -1 144.74 12.15
-7 -1 -1 167.51 10.69
-1 -7 1 158.57 14.08
1 -7 -1 139.95 15.16
-7 -1 0 102.65 8.68
-1 -7 0 122.75 12.89
1 -7 0 100.3 13.48
-7 1 0 114.44 10.32
-7 -1 0 111.83 8.28
-1 -7 0 104.84 13.04
1 -7 0 119.15 14.36
-1 7 0 109.58 11.19
1 7 0 114.46 11.37
7 1 0 105.94 7.79
-7 1 0 121.53 9.27
-7 1 0 107.33 10.1
1 -7 1 125.1 14.31
-7 -1 1 142.03 8.65
-1 -7 -1 149.45 13.69
1 7 -1 129.42 11.74
1 -7 1 125.6 14.89
-7 1 -1 137.89 11.33
-7 1 -1 147.65 10.49
7 1 1 128.01 8.9
7 1 2 190.59 10.82
-7 1 -2 215.63 12.66
1 7 -2 200.87 13.02
1 -7 2 195.39 15.65
-1 -7 -2 201.86 15.25
7 -1 -2 194.77 12.22
-7 -1 2 184.5 9.4
-7 -1 3 97.55 6.61
1 -7 3 97.74 13.63
-7 1 -3 97.17 10.18
7 1 3 93.89 8.98
-1 -7 -3 108.03 13.56
-1 7 3 117.89 11.21
1 7 -3 115.49 10.88
1 7 -3 109.99 11.06
7 -1 -3 84.76 10.16
-7 -1 3 82.4 5.95
1 -7 4 2699.89 96.3
1 7 -4 2714.4 94.95
-1 7 4 2658.51 95.19
-1 -7 -4 2689.76 96.4
7 1 4 2699.71 94.5
-7 1 -4 2818.76 95.58
1 7 -4 2644.86 95.02
7 -1 -4 2598.52 94.42
-1 7 5 82.41 11.97
-7 1 -5 86.86 11.82
1 -7 5 85.12 13.51
1 7 -5 79.8 9.79
-1 -7 -5 84.61 13.45
-7 -1 5 75.44 7.52
1 7 -5 60.89 10.01
7 1 5 85.46 9.15
-7 1 -5 68.85 11.02
-7 1 -6 199.33 14.77
7 -1 -6 177.51 9.63
1 7 -6 189.45 12.11
1 -7 6 183.2 15.54
-1 -7 -6 190.19 15.63
-1 7 6 206.4 14.92
-7 1 -6 217.81 14.21
1 7 -7 162.68 11.66
-1 -7 -7 178.24 15.78
-7 1 -7 200.15 14.04
-7 1 -7 162.32 14.63
-1 7 7 170.95 14.61
-1 7 8 91.58 13.04
1 7 -8 77.96 9.62
-7 1 -8 96.42 12.67
-7 1 -8 98.33 13.58
-1 -7 -8 99.21 14.6
-1 -7 -9 631.35 29.68
-7 1 -9 627.84 29.41
-7 1 -9 655.65 28.99
1 7 -9 650.08 26.84
-1 7 9 638.63 28.92
7 1 9 640.08 25.43
1 7 -10 2.01 8.12
-7 1 -10 12.15 12.04
-7 1 -10 2.27 12.47
-1 -7 -10 3.24 13.62
1 7 -10 3.58 11.73
-1 7 10 4.03 12.66
1 7 -11 107.22 10.92
-7 1 -11 110.88 14.38
-1 -7 -11 87.41 15.56
1 7 -11 126.36 14.91
-1 7 11 113.97 14.77
-7 1 -11 132.96 15.98
-7 1 -12 563.93 27.92
-7 1 -12 541.15 28.73
1 7 -12 574.16 28.48
-1 7 12 607.91 28.3
1 7 -12 561.19 25.26
-7 1 -13 123.53 15.9
-7 1 -13 99.32 17.24
-1 7 13 75.28 16.01
1 7 -13 100.13 16.09
1 7 -13 89.15 11.79
-7 1 -14 22.03 14.77
-7 1 -14 9.14 15.85
1 7 -14 -0.68 16.43
1 7 -14 8.81 11.46
-7 1 -15 104.21 16.44
-7 1 -15 161.94 19.74
1 7 -15 117 19.27
-7 1 -16 115.59 17.56
1 7 -16 136.78 19.26
-7 1 -16 122.71 19.93
-7 1 -17 164.33 19.15
1 7 -17 136.7 21.63
-7 1 -17 174.36 21.77
-7 1 -18 27.23 16.12
-7 1 -18 39.25 20.18
1 7 -18 25.11 19.53
-7 1 -19 27.61 16.98
-7 1 -19 36.25 21.42
1 7 -19 31.97 20.26
-7 1 -20 170.15 20.96
-7 1 -20 157.04 23.52
1 7 -20 157.74 24.35
-7 1 -21 65.32 19.22
1 7 -21 17.12 22.18
-7 1 -21 42.19 22.41
-7 1 -22 8.84 18.64
-7 1 -22 -1.16 22.15
-7 1 -23 -3.02 19.29
-7 1 -23 -3.62 22.86
-7 1 -24 -2.07 19.87
-7 1 -24 28.73 24.57
-7 1 -25 30.6 20.38
-7 1 -25 64.8 25.5
-7 1 -26 9.71 20.98
-7 1 -26 -46.93 26.44
-7 1 -27 17.61 21.43
-7 1 -27 -9.67 27.02
-7 -2 -27 16.94 21.74
-2 7 -27 59.34 28.99
-7 -2 -27 23.39 26.36
-7 -2 -26 -7.75 21.07
-2 7 -26 15.67 27.43
-7 -2 -26 -9.39 25.61
-7 -2 -25 9.71 20.4
-2 7 -25 -8.84 26.02
-7 -2 -25 5.19 24.99
-7 -2 -24 -29.17 20.38
-7 -2 -24 -3.77 24.22
-7 -2 -23 22.15 19.39
-2 7 -23 20.06 24.32
-7 -2 -23 8.42 23.02
-7 -2 -22 30.24 18.64
-7 -2 -22 11.5 22.23
-2 7 -22 -5.68 23.05
-7 -2 -21 41.82 21.69
-2 7 -21 42.58 23.09
-7 -2 -21 29.34 17.5
-7 -2 -20 44.11 21.31
-2 7 -20 -12.58 21.53
-7 -2 -20 0.91 17.17
-7 -2 -19 170.5 23.64
-2 7 -19 149.51 23.91
-7 -2 -19 177.57 20.62
-7 -2 -18 34.59 16.58
-7 -2 -18 79.4 20.49
-2 7 -18 65.88 20.5
-2 7 -18 43.45 15.07
-2 7 -17 24.26 14.31
-7 -2 -17 54.25 16.8
-2 7 -17 36.03 19.31
-7 -2 -17 51.83 19.27
2 7 16 19.49 15.31
-7 -2 -16 16.31 15.14
2 -7 -16 -20.93 13.36
-2 7 -16 10.47 14.13
-7 -2 -16 3.38 17.55
-2 7 -16 38.64 19.13
-2 7 -15 355.45 22.36
2 -7 -15 364.09 22.8
-7 -2 -15 336.63 25.41
-2 7 -15 385.21 26.39
-7 -2 -15 379.13 24.38
2 7 15 443.78 24.15
2 -7 -14 276.6 19.73
-2 7 -14 266.9 19.22
-7 -2 -14 249.26 20.5
-7 -2 -14 252.35 21.47
2 7 14 270.81 19.82
-2 7 -14 281.8 22.33
-2 7 -13 116.37 18.4
2 -7 -13 121.35 16.21
-7 -2 -13 125.04 16.2
-7 -2 -13 146.74 17.83
2 7 13 101.05 15.51
-2 7 -13 128.78 14.74
-2 7 -12 -3.41 14.53
-7 -2 -12 21.09 13.89
2 -7 -12 10 13.33
-7 -2 -12 12.18 13.88
2 7 12 9.85 12.76
-2 7 -12 20.26 11.4
-7 -2 -11 288.75 18.77
2 -7 -11 257.55 18.55
-2 7 -11 257.21 16.91
-7 -2 -11 222.09 18.4
2 7 11 274.25 18.08
-2 7 -11 236.04 19.69
-2 7 -10 34.67 11.33
-7 -2 -10 29.44 12.6
2 -7 -10 29.85 13.32
-7 -2 -10 44.82 13.03
2 7 10 44.74 13.08
2 7 9 973.12 39.95
2 -7 -9 981.04 40.36
-2 7 -9 959.36 39.38
-7 -2 -9 1006.69 40.38
-7 -2 -9 997.46 40.26
2 -7 -8 461.53 24.67
-7 2 8 482.33 22.37
-2 7 -8 521.94 23.89
-7 -2 -8 522.52 24.34
-7 -2 -8 510.72 24.16
2 -7 -7 842.92 36.04
-7 -2 -7 888.72 35.57
-2 -7 7 877.55 34.71
-7 -2 -7 850.89 35.14
-7 -2 -6 173.19 13.89
2 7 6 174.65 14.04
-7 -2 -6 175.22 13.81
2 -7 -6 204.47 15.64
-2 -7 6 182.01 13.82
-7 -2 -5 107.44 11.71
-2 -7 5 120.13 12.19
-7 2 5 96.96 7.92
2 -7 -5 104.75 13.42
-7 -2 -5 111.58 11.25
7 -2 5 96.14 9.5
-7 -2 -4 66.8 10.56
7 -2 4 49.43 8.63
-7 2 4 76.41 7.53
-2 7 -4 68.91 11.15
-7 -2 -4 85.79 9.97
2 -7 -4 78.76 12.72
-2 -7 4 60.96 11.15
-2 7 -4 89.18 12.81
7 2 -4 68.97 5.82
7 2 -3 171.9 8.08
-2 7 -3 222.59 14.05
-7 2 3 198.43 10.7
-2 -7 3 187.31 14.01
2 -7 -3 172.27 15.19
-7 -2 -3 196.31 11.88
-2 7 -3 217.2 15.26
-7 -2 -3 200.8 12.76
-7 -2 -2 211.5 12.62
-7 2 2 209.58 11.5
-2 7 -2 197.75 13.92
2 -7 -2 207.05 15.69
-2 -7 2 209.07 14.54
-7 -2 -2 204.06 11.17
-7 2 2 194.16 10.59
7 2 -2 191.65 9.08
-2 7 -2 215.31 15.63
2 -7 -2 204.9 16.89
2 7 1 138.8 11.57
-7 -2 -1 104.98 9.77
7 2 -1 113.07 7.24
-7 2 1 116.47 9.83
-2 -7 1 116.23 12.51
2 -7 -1 105.57 13.68
-7 -2 -1 116.18 7.97
-2 -7 1 109.29 12.42
2 -7 -1 102.44 14.69
-7 2 1 123.31 8.93
-7 -2 0 606.03 23.12
-7 -2 0 641.79 24.59
2 -7 0 633.09 28.1
-7 2 0 641.05 25.53
-2 -7 0 658.74 27.3
2 7 0 627.1 26.03
-7 2 0 674.2 25.1
2 -7 0 614.95 28.66
-7 2 0 635.98 26.03
-2 -7 0 637.77 26.95
7 2 0 622.9 23.95
-7 2 -1 94.97 9.82
-7 -2 1 105.15 7.72
-7 2 -1 118.07 10.92
2 -7 1 94.96 13.73
7 2 1 95.52 8.06
2 7 -1 109.36 11
-2 -7 -1 121.49 12.98
-7 -2 1 94.16 5.84
2 -7 1 129.87 14.57
-7 2 -1 107.84 11.39
-7 2 -2 232.11 13.66
2 -7 2 210.35 16.21
2 7 -2 202.41 13.15
-2 7 2 214.12 13.4
-2 -7 -2 241.17 15.93
7 2 2 193.4 11.1
-7 2 -2 237.15 13.09
-7 -2 2 191.03 9.8
-7 2 -2 237.7 14.09
7 -2 -2 184.72 13.71
7 2 3 193.21 9.75
2 -7 3 172.25 14.77
2 7 -3 201.07 10.94
-2 -7 -3 191.19 14.34
2 7 -3 180.55 10.57
7 -2 -3 204.15 12.53
-7 2 -3 179.78 11.33
-7 -2 4 55.65 5.03
2 7 -4 54.79 8.89
7 -2 -4 70.49 10.83
2 7 -4 68.83 8.37
-2 7 4 2.65 3.73
-2 -7 -4 77.79 12.86
7 2 4 52.82 8.17
2 -7 4 73.85 13.06
7 -2 -4 76.84 8.64
-7 2 -4 58.75 10.3
-2 7 4 72.81 11.08
2 -7 5 64.13 13.23
7 -2 -5 74.96 8.71
2 7 -5 71.43 8.59
-2 -7 -5 83.94 13.57
-2 7 5 49.5 11.07
2 7 -5 92.37 9.65
7 2 5 67.62 8.81
-7 2 -5 67.6 11
2 7 -6 190.96 11.59
-2 7 6 167.49 13.92
-7 2 -6 181.91 14.05
-2 -7 -6 161.8 15.62
2 -7 6 180.11 15.89
7 -2 -6 183.89 10.89
7 -2 -7 784.45 29.68
2 7 -7 800.99 30.83
-2 -7 -7 743.4 33.47
-7 2 -7 805.1 32.88
-7 2 -7 746.37 33.22
7 2 7 794.97 31.36
-2 7 7 818.31 32.92
-7 2 -8 459.84 22.92
-2 -7 -8 475.47 23.97
-2 7 8 458.21 23.07
2 7 -8 478.28 20.74
-7 2 -8 443.31 23.57
-7 2 -9 1045.39 41.15
2 7 -9 1006.62 40.23
-7 2 -9 928.61 41.51
-2 7 9 1027.53 41.14
2 7 -9 1045.15 39
7 2 10 30.58 9.05
-2 7 10 19.24 12.78
-7 2 -10 27.7 12.06
-7 2 -10 44.72 13.99
2 7 -10 3.85 10.72
2 7 -10 37.04 9.1
-7 2 -11 265.24 18.54
-2 7 11 339.95 19.87
7 2 11 266.02 15.35
2 7 -11 280.48 18.11
2 7 -11 296.26 15.77
-7 2 -11 250.18 20.06
-7 2 -12 14.9 14.3
2 7 -12 -10.73 9.25
-7 2 -12 2.48 12.72
2 7 -12 30.35 12.37
2 7 -13 126.11 16.2
-7 2 -13 126.69 17.79
-7 2 -13 135.37 16.77
-7 2 -14 259.01 22.12
2 7 -14 260.98 21.12
-7 2 -14 241.17 19.86
-7 2 -15 387.66 26.52
2 7 -15 422.81 25.73
-7 2 -15 411.09 24.99
-7 2 -16 -3.84 15.69
-7 2 -16 10.5 17.85
2 7 -16 14.97 17.19
-7 2 -17 33.31 16.2
-7 2 -17 40.59 19.91
2 7 -17 79.1 19.27
-7 2 -18 65.51 16.98
-7 2 -18 67.94 20.96
2 7 -18 62.93 20.1
-7 2 -19 164.38 20.06
-7 2 -19 155.16 23.08
-7 2 -20 39.46 17.71
-7 2 -20 27.78 21.19
-7 2 -21 9.32 17.56
-7 2 -21 54.71 22.74
-7 2 -22 1.95 18.15
-7 2 -22 18.59 22.38
-7 2 -23 32.5 19.62
-7 2 -23 37.76 23.8
-7 2 -24 -13.54 19.81
-7 2 -24 32.94 24.63
-7 2 -25 15.66 24.67
-7 2 -25 14.9 20.32
-7 2 -26 13.46 25.61
-7 2 -26 78.03 21.58
-7 2 -27 12.48 27.61
-7 2 -27 -2.2 21.39
-7 -3 -27 12.59 21.62
-3 7 -27 6.85 28.33
-7 -3 -26 -12.33 21.14
-7 -3 -26 -23.92 25.7
-3 7 -26 -6.62 27.3
-7 -3 -25 12.03 21.09
-7 -3 -25 57.03 25.9
-3 7 -25 72.31 27.45
-7 -3 -24 55.37 21.29
-7 -3 -24 64.02 24.98
-3 7 -24 37.5 25.84
-7 -3 -23 6.21 19.81
-7 -3 -23 18.17 23.76
-3 7 -23 37.52 24.99
-7 -3 -22 -18.99 18.57
-7 -3 -22 -26.75 22.5
-3 7 -22 2.33 22.94
-7 -3 -21 67.19 19.29
-7 -3 -21 93.63 23.36
-3 7 -21 13.43 22.43
-7 -3 -20 125.99 22.92
-7 -3 -20 94.03 19.46
-3 7 -20 91.72 24.02
-3 7 -20 94.94 18.31
-7 -3 -19 54.25 21.36
-7 -3 -19 78.88 18.59
-3 7 -19 88.06 17.71
-3 7 -19 93.55 22.09
-7 -3 -18 -2.56 16.31
-7 -3 -18 -0.95 19.09
-3 7 -18 22.15 15.13
-3 7 -18 25.32 20.45
-7 -3 -17 45.97 17.21
3 7 17 48.52 16.37
-3 7 -17 36.17 20.03
-3 7 -17 62.72 15.52
-7 -3 -17 66.76 19.73
3 7 16 477.96 21.99
-3 7 -16 462.68 21.58
-7 -3 -16 461.34 25.17
-3 7 -16 440.15 25.6
-7 -3 -16 441.89 23.02
-7 -3 -15 45.74 15.95
3 7 15 60.89 15.02
-3 7 -15 27.13 14.53
-7 -3 -15 41.52 17.6
-3 7 -15 60.35 18.35
-7 -3 -14 15.68 14.21
3 7 14 31.54 14.09
3 -7 -14 6.54 12.92
-3 7 -14 38.48 14.1
-3 7 -14 14.43 17.14
-7 -3 -14 21.68 16.32
-7 -3 -13 115.69 16.23
3 -7 -13 124.32 15.85
3 7 13 149.3 15.48
-3 7 -13 105.36 18.49
-7 -3 -13 92.7 16.35
-3 7 -13 101.5 15.09
-7 -3 -12 87.74 14.69
3 -7 -12 74.01 15.25
3 7 12 93.44 14.1
-3 7 -12 79.09 17.28
-7 -3 -12 102.27 16.16
-3 7 -12 96.95 14.14
-7 -3 -11 89.56 13.98
3 -7 -11 83.79 14.63
3 7 11 85.66 13.55
-3 7 -11 89.71 16.33
-7 -3 -11 91.03 15.11
-3 7 -11 76.59 12.82
-7 -3 -10 26.72 12.68
3 7 10 30.35 12.65
3 -7 -10 12.68 12.75
-3 7 -10 10.97 11.4
-7 -3 -10 -2.76 12.74
-3 7 -9 56.14 11.7
3 -7 -9 47.51 13.49
-7 -3 -9 41.86 13.05
-7 -3 -9 57.62 12.71
3 -7 -8 1650.99 62.3
-7 -3 -8 1625.48 61.93
-7 -3 -8 1694.36 62.39
-3 7 -8 1652.06 62.06
-3 -7 7 103.42 11.48
-7 -3 -7 79.26 12.66
3 -7 -7 102.51 13.53
-7 -3 -7 94.15 12
-3 7 -7 102.35 12.09
-7 -3 -6 105.86 11.62
-7 -3 -6 118.56 12.35
3 7 6 100.83 11.95
-3 -7 6 105.41 11.54
3 -7 -6 76.43 13
-7 -3 -5 129.37 11.8
-7 3 5 126.91 9.34
3 -7 -5 127.56 13.95
3 7 5 134.08 12.32
-3 -7 5 148 12.14
-7 -3 -5 136.16 12.58
-3 -7 4 493.07 21.48
-7 3 4 495.27 19.55
3 -7 -4 513.14 23.45
7 3 -4 449.13 16.81
-7 -3 -4 481.54 20.66
-7 -3 -4 495.88 21.54
3 -7 -3 234.11 16.24
-3 -7 3 256.39 14.96
-7 3 3 235.89 12.49
7 3 -3 221.67 9.38
-7 -3 -3 231.69 13.96
-7 -3 -3 227.88 12.85
-7 -3 -2 31.59 8.87
-7 3 2 23.44 8.33
-3 -7 2 43.96 10.97
3 -7 -2 19.16 12.05
7 3 -2 25.08 4.55
3 -7 -2 35.18 13.25
-3 7 -2 27.59 12.36
-7 -3 -2 41.88 7.27
-7 -3 -1 30.87 6.2
-7 3 1 32.37 8.7
3 -7 -1 7.76 12.39
7 3 -1 6.99 4.95
-3 -7 1 38.75 10.96
-3 -7 1 27.01 10.38
-3 7 -1 17.78 11.7
3 -7 -1 18.63 13.73
-7 -3 -1 40.86 8.12
3 -7 0 2168.49 80.23
-7 3 0 2278.62 78.59
-3 -7 0 2251.56 79.54
-3 7 0 2219.62 79.18
3 7 0 2202.6 78.71
3 -7 0 2213.5 81.06
-7 3 0 2200.6 79.09
-3 -7 0 2215.52 78.84
-7 3 0 2207.31 78.32
-7 -3 0 2239.78 77.83
7 3 0 2136.97 77.28
7 3 1 19.28 6.59
-7 3 -1 21.96 8.17
-3 7 1 3.23 5.5
-3 -7 -1 40.56 11.67
3 7 -1 18.08 9
-7 3 -1 27.58 10.64
3 -7 1 8.71 13.42
-7 3 -1 41.93 9.71
3 -7 1 29.09 12.85
-7 3 -2 38.74 9.02
7 -3 -2 24.88 9.64
3 -7 2 36.68 13.06
-7 3 -2 56.77 10.04
7 3 2 43.54 7.48
3 7 -2 48.05 9.12
-3 -7 -2 37.53 11.82
-3 7 2 -1.95 3.03
-3 7 2 30.1 9.26
7 -3 -2 15.89 11.01
-7 3 -2 38.28 10.6
-7 3 -3 293.35 15.71
7 -3 -3 290.13 14.59
3 -7 3 274.79 18.11
7 -3 -3 267.13 16.45
-3 7 3 139.54 12.56
3 7 -3 258.69 13.6
-3 -7 -3 278.19 16.96
-7 -3 3 269.84 11.16
7 3 3 277.33 13.33
-7 3 -3 238.02 14.32
-3 7 3 251.93 14.57
7 3 4 427.51 18.42
7 3 4 433.07 18.13
-7 3 -4 470.2 20.51
3 -7 4 421.3 22.31
7 -3 -4 448.85 19.06
-7 -3 4 391.96 15.35
-3 7 4 420.13 19.35
-3 -7 -4 422.62 21.61
3 7 -4 394.79 18.18
-3 7 4 381.65 19.37
7 -3 -4 410.52 20.87
3 7 -4 438.28 18.75
-7 3 -4 423.39 20.08
-3 -7 -5 175.31 15.27
7 3 5 160.98 11.3
7 3 5 172.05 11.63
7 -3 -5 160.02 12.02
-7 3 -5 192 13.63
3 7 -5 174.92 11.75
3 7 -5 159.42 10.92
-3 7 5 184.68 13.48
3 -7 5 178.32 16.19
-7 3 -6 113.06 12.49
7 3 6 115.27 10.6
7 -3 -6 100.28 10.39
3 7 -6 105.42 9.73
-3 7 6 107.41 12.49
-3 -7 -6 120.53 14.5
3 7 -6 116.45 10.56
7 -3 -7 67.49 9.46
3 7 -7 62.38 9.23
-7 3 -7 61.06 12.11
-3 -7 -7 63.15 13.41
7 3 7 82.58 10.47
-3 7 7 76.1 12.44
7 -3 -8 1709.1 60.59
3 7 -8 1706.78 61.87
-7 3 -8 1657.23 63.83
-3 7 8 1670.5 62.88
-7 3 -8 1628.51 62.96
3 7 -9 57.85 8.91
3 7 -9 45.49 10.67
-7 3 -9 42.43 13.96
-7 3 -9 48.34 12.27
-3 7 9 57.25 13.45
3 7 -10 18.31 8.33
-7 3 -10 15.97 13.51
3 7 -10 -4.1 10.62
-7 3 -10 3.31 11.83
7 3 10 19.11 9.6
3 7 -11 63.41 12.24
-7 3 -11 81.06 15.8
7 3 11 58.74 10.36
-7 3 -11 62.49 13.25
3 7 -12 91.72 13.28
-7 3 -12 101.64 16.47
-7 3 -12 108.81 14.93
7 3 12 80.65 11.74
3 7 -13 97.31 14.68
-7 3 -13 130.47 18.14
-7 3 -13 118.8 16.19
-7 3 -14 19.01 16.79
3 7 -14 25.43 15
-7 3 -14 -2.08 14.08
-7 3 -15 50.19 17.28
-7 3 -15 52.63 15.85
-7 3 -16 431.37 26.16
-7 3 -16 427.22 28.25
-7 3 -17 63.26 20.4
-7 3 -17 34.89 16.32
-7 3 -18 21.74 19.62
-7 3 -18 6.75 16.74
-7 3 -19 71.59 21.21
-7 3 -19 56.42 18.04
-7 3 -20 134.78 23.59
-7 3 -20 111.12 19.58
-7 3 -21 37.37 23.06
-7 3 -21 24.25 17.86
-7 3 -22 7.09 22.22
-7 3 -22 15.45 18.24
-7 3 -23 24.48 23.66
-7 3 -23 11.99 18.84
-7 3 -24 44.59 25.38
-7 3 -24 60.22 21.08
-7 3 -25 -29.12 25.69
-7 3 -25 33.38 20.91
-7 3 -26 -2.73 26.61
-7 3 -26 26.27 21.34
-7 -4 -27 -12.74 22.33
-7 -4 -26 44.84 25.69
-4 7 -26 18.93 27.56
-7 -4 -26 -7.98 21.6
-7 -4 -25 15.41 24.4
-4 7 -25 52.72 27.18
-7 -4 -25 -10.01 20.82
-7 -4 -24 21.18 23.95
-4 7 -24 -1.28 25.77
-7 -4 -24 -22.74 20.57
-7 -4 -23 12.06 22.64
-4 7 -23 -1.24 24.7
-7 -4 -23 -1.05 19.69
-7 -4 -22 2.32 22.05
-7 -4 -22 49.98 19.99
-4 7 -22 60.85 24.52
-7 -4 -21 -1.12 21.34
-7 -4 -21 20.69 18.55
-4 7 -21 -11.52 23.53
-4 7 -21 28.41 17.91
-7 -4 -20 117.76 23.33
-7 -4 -20 111.38 19.93
-4 7 -20 63.88 23.05
-4 7 -20 132.36 19.78
-7 -4 -19 37.77 20.92
-7 -4 -19 32.09 17.68
-4 7 -19 73.21 22.88
-4 7 -19 64.01 17.21
-4 7 -18 -8.55 15.84
4 7 18 29.92 15.69
-7 -4 -18 25.22 20.01
-7 -4 -18 18.46 17.3
-4 7 -18 49.26 20.9
-4 7 -17 43.35 15.32
4 7 17 40.24 15.69
-4 7 -17 19.23 19.93
-7 -4 -17 52.94 17.69
-7 -4 -17 19.35 19.4
-4 7 -16 71.49 20.09
-7 -4 -16 82.23 19.68
4 7 16 61.39 15.54
-7 -4 -16 49.68 16.38
-4 7 -16 58.17 16.01
-4 7 -15 138.3 20.23
4 7 15 117.13 15.9
-7 -4 -15 163.36 19.83
-4 7 -15 134.58 16.74
-7 -4 -15 135.05 17.78
-4 7 -14 213.01 21.82
4 7 14 188.41 17.87
4 -7 -14 295.79 17.03
-7 -4 -14 173.48 18.95
-7 -4 -14 209.02 20.61
-4 7 -14 162.01 17.94
4 7 13 144.07 16.1
-7 -4 -13 148.23 17.44
4 -7 -13 212.77 15.8
-4 7 -13 126.33 19.5
-4 7 -13 108.38 15.86
-7 -4 -13 153.88 19.07
4 7 12 30.98 13.14
-7 -4 -12 34.62 14.09
4 -7 -12 67.42 13.92
-4 7 -12 27.49 16.11
-4 7 -12 26.33 13.36
-7 -4 -12 12.52 14.61
4 7 11 91.96 14.17
-4 7 -11 64.69 16.48
4 -7 -11 98.02 14.78
-7 -4 -11 97.53 15.38
-4 7 -11 71.9 13.29
-7 -4 -11 84.03 14.16
4 -7 -10 150.86 15.5
-7 -4 -10 152.97 15.75
-4 7 -10 139.91 14.83
-7 -4 -10 174.57 15.76
4 -7 -9 33.97 13.15
-7 -4 -9 18.94 12.58
-4 7 -9 28.52 11.59
-7 -4 -9 15.27 11.76
4 -7 -8 173.17 15.86
-7 -4 -8 196.49 15.87
-4 7 -8 190.03 14.95
-7 -4 -8 201.01 15.48
-4 -7 7 14.15 9.73
-7 -4 -7 27.82 10.94
4 -7 -7 38.14 12.43
-4 7 -7 32.14 11.13
-7 -4 -7 31.37 11.66
4 -7 -6 89.07 13.41
-4 -7 6 62.05 10.39
-7 -4 -6 79.59 11.94
-4 7 -6 64.98 11.52
-7 -4 -6 68.76 11.59
4 7 6 80.72 11.22
4 -7 -5 650.72 27.91
-7 4 5 602.22 24.53
-4 -7 5 605.2 25.6
-7 -4 -5 647.68 26.8
4 7 5 603.1 26.09
-7 -4 -5 589.01 25.82
-7 4 4 194.8 11.89
4 -7 -4 197.7 15.76
-4 -7 4 199.08 13.35
-7 -4 -4 198.2 14.02
-7 -4 -4 194.42 12.88
4 7 4 232.69 13.61
-4 -7 3 64.1 10.69
4 -7 -3 66.64 12.98
-7 4 3 70.87 9.24
4 -7 -3 87.67 15
-7 -4 -3 72.03 10.15
4 7 3 75.76 9.57
-7 -4 -3 78.15 9.29
4 -7 -2 584.63 26.79
-4 -7 2 581.84 24.96
-7 4 2 580.5 24.01
-7 -4 -2 598.29 24.48
4 -7 -2 561.6 27.93
-7 4 1 243.99 13.34
-4 -7 1 248.68 14.73
4 -7 -1 231.37 16.39
7 -4 1 210.85 9.78
4 -7 -1 207.79 17.72
-4 -7 1 249.42 13.28
7 4 -1 188.97 10.18
7 4 0 16.01 6.27
4 -7 0 16.76 12.45
-7 4 0 44.63 9.6
-4 -7 0 33.07 11.12
7 -4 0 45.81 5.95
-4 7 0 68.95 8.01
4 -7 0 60.14 14.45
-4 -7 0 38.77 9.62
-7 4 0 26.52 10.71
7 -4 -1 216.34 10.47
7 4 1 210.55 11.19
7 -4 -1 259.58 15.03
-7 4 -1 244.37 13.63
4 -7 1 220.31 16.18
-4 -7 -1 237.78 15.34
-7 4 -1 247 12.97
-4 7 1 39.82 9.81
4 7 -1 255.69 12.75
-4 7 1 205.07 11.92
7 -4 -1 211.23 15.61
-7 4 -1 244.63 14.8
4 -7 1 250.53 17.63
-7 4 -2 663.05 27.63
7 -4 -2 614.27 28.13
-7 4 -2 643.64 26.24
7 4 2 600.19 23.9
7 -4 -2 617.25 26.81
-7 4 -2 645.13 26.56
4 -7 2 635.58 28.95
-4 7 2 613.98 26.14
-4 -7 -2 642.29 27.62
-7 -4 2 649.82 24.47
4 7 -2 684.97 25.64
7 4 2 618.06 24.97
7 -4 -2 630.55 24.6
-4 7 2 629.09 25.53
-4 7 3 87.73 10.44
7 -4 -3 88.59 8.22
-7 4 -3 85.03 10.63
7 4 3 72.62 8.2
-7 4 -3 98.11 11.38
7 -4 -3 80.18 11.38
4 -7 3 97.7 14.7
-4 -7 -3 88.2 12.73
-4 7 3 57.72 9.93
-7 -4 3 63.05 7.37
4 7 -3 76.69 8.73
7 4 3 75.02 8.76
-7 4 -3 81.94 12.03
7 -4 -3 69.2 13.45
7 4 4 185.97 11.55
7 -4 -4 196.63 13.51
4 -7 4 184.81 16.69
-7 -4 4 171.27 9.42
4 7 -4 201.46 11.53
7 -4 -4 183.53 15.66
4 7 -4 156.67 11.52
-4 7 4 218.26 13.62
7 -4 -4 223.57 11.67
7 4 4 196.2 12.05
-4 -7 -4 215.67 15.83
-7 4 -4 237.37 14.08
-4 7 5 642.14 27.17
7 -4 -5 640.16 25.61
4 7 -5 637.81 25.36
-4 -7 -5 653.1 28.67
7 4 5 637.61 25.54
7 -4 -5 629.35 26.56
4 -7 5 616.95 29.35
-7 4 -5 623.29 27.34
-4 7 6 66.13 12.08
7 -4 -6 85.05 10.97
-7 4 -6 50.13 11.38
7 4 6 92.72 9.97
-4 7 7 19.48 11.86
-7 4 -7 20.53 11.03
7 4 7 42.38 9.61
7 -4 -7 22.3 9.57
7 -4 -8 196.57 13.63
-7 4 -8 167.02 15.12
4 7 -8 195.26 13.81
-7 4 -9 21.18 13.72
4 7 -9 30.86 10.49
-7 4 -9 24.76 11.76
-7 4 -10 117.94 16.14
4 7 -10 120.79 13.27
-7 4 -10 126.29 14.82
7 4 11 73.13 11.72
-7 4 -11 107.41 16.1
-7 4 -11 52.02 13.78
7 4 12 28.49 11.36
-7 4 -12 19.83 16.38
-7 4 -12 4.42 13.26
7 4 13 126.91 13.4
-7 4 -13 120.13 16.33
-7 4 -13 125.72 18.58
-7 4 -14 157.06 17.51
-7 4 -14 146.96 19.76
-7 4 -15 117.83 17.36
-7 4 -15 124.95 19.92
-7 4 -16 20.88 15.58
-7 4 -16 40.98 18.65
-7 4 -17 59.24 16.71
-7 4 -17 43.83 19.48
-7 4 -18 45.6 17.15
-7 4 -18 32.42 21.05
-7 4 -19 24.01 17.18
-7 4 -19 11.66 20.42
-7 4 -20 56.47 22.24
-7 4 -20 102.97 19.5
-7 4 -21 42.68 22.78
-7 4 -21 13.18 17.89
-7 4 -22 48.03 22.99
-7 4 -22 69.18 19.68
-7 4 -23 27.39 24.4
-7 4 -23 5.02 19.36
-7 4 -24 46.36 25.24
-7 4 -24 19.62 20.05
-7 4 -25 -5.32 25.5
-7 4 -25 9.6 20.23
-7 4 -26 17.92 27.34
-7 4 -26 3.31 21.51
-5 7 -26 1.38 28.04
-7 -5 -25 14.63 20.81
-5 7 -25 30.89 27.55
-7 -5 -24 53.97 21.66
-5 7 -24 82.29 27.13
-7 -5 -23 16.13 19.88
-5 7 -23 -2.53 25.1
-7 -5 -22 1.16 22.03
-7 -5 -22 31.36 19.98
-5 7 -22 1.22 23.93
-5 7 -22 14.43 18.78
-7 -5 -21 106.85 23.99
-7 -5 -21 81.72 20.33
-5 7 -21 54.43 23.85
-5 7 -21 113.95 19.97
-7 -5 -20 37.36 21.68
-7 -5 -20 -4.87 18
-5 7 -20 28.08 22.89
-5 7 -20 12.33 17.17
-7 -5 -19 13.27 21.51
-5 7 -19 35.6 17.02
-5 7 -19 40.99 21.27
-7 -5 -19 27.27 17.66
-7 -5 -18 58.4 20.59
5 7 18 36.67 15.76
-5 7 -18 31.67 16.61
-5 7 -18 4.13 20.95
-7 -5 -18 40.67 17.64
-5 7 -17 221.76 20.29
5 7 17 215.34 19.14
-7 -5 -17 185.04 23.23
-7 -5 -17 193.53 20.79
-5 7 -17 218.34 24.44
-5 7 -16 72.4 16.33
5 7 16 64.07 15.19
-7 -5 -16 99.94 20
-7 -5 -16 93.17 17.89
-5 7 -16 62.24 20.22
-5 7 -15 178.16 18.63
5 7 15 174.46 17.4
-7 -5 -15 191.69 21.3
-7 -5 -15 215.34 20.28
-5 7 -15 211.32 22.93
-5 7 -14 25.81 14.04
-7 -5 -14 25.01 15.47
-7 -5 -14 27.97 17.07
-5 7 -14 16.27 17.6
5 7 14 16.22 13.5
-5 7 -13 246.67 20.02
-5 7 -13 257.38 23.76
-7 -5 -13 272.25 21.54
5 7 13 259.93 19.2
-7 -5 -13 296.41 22.83
-5 7 -12 457.37 26.38
5 -7 -12 597.3 25.8
-7 -5 -12 489.03 27.85
-7 -5 -12 527.43 27.67
5 7 12 559.05 26.48
-5 7 -12 480.79 29.14
5 -7 -11 83.14 14.58
-7 -5 -11 84.44 14.69
-5 7 -11 96.68 14.01
5 7 11 54.64 13.44
-7 -5 -11 44.49 15.02
-7 -5 -10 12.12 13.81
5 -7 -10 20.41 13.07
-5 7 -10 5.81 12.27
-7 -5 -10 17.17 12.67
5 -7 -9 472.22 24.45
-7 -5 -9 486.1 24.99
-5 7 -9 505.59 24.63
-7 -5 -9 489.58 24.82
-7 -5 -8 621.94 28.02
-5 7 -8 592.41 27.69
5 -7 -8 603.77 27.94
-7 -5 -8 578.77 27.45
5 -7 -7 113.38 14.34
-7 -5 -7 115.35 13.33
-5 7 -7 107.49 12.94
-7 -5 -7 72.61 12.71
-7 -5 -6 298.07 17.08
5 -7 -6 255.07 17.57
-5 -7 6 266.84 14.67
-5 7 -6 250.95 16.78
5 7 6 270.06 15.21
-7 -5 -6 269.85 16.46
5 -7 -5 277.25 17.98
-7 5 5 285.8 15.03
5 7 5 282.27 15.24
-7 -5 -5 303.19 17.32
-5 -7 5 299.88 15.49
-5 -7 4 0.88 9.27
5 -7 -4 3.54 11.93
5 7 4 7.39 7.85
-7 5 4 7.77 8.48
5 -7 -4 3.87 13.88
-7 -5 -4 11.35 10.14
5 7 3 108.9 9.22
5 -7 -3 85.01 15.41
5 -7 -3 101.09 13.84
-7 5 3 91.44 10.24
-5 -7 3 100.79 11.15
5 -7 -2 186.63 14.31
5 -7 -2 173.4 15.77
5 7 2 203.19 10.83
-7 5 2 193.22 10.87
-5 -7 2 215.08 11.85
-7 5 1 908.81 17.9
-5 -7 1 947.75 18.74
5 -7 -1 841.15 21.48
5 7 1 891.95 17.01
7 5 -1 897.27 13.99
-5 -7 1 839.21 15.1
5 -7 -1 878.68 23.5
5 -7 0 202.6 16
7 -5 0 194.49 15.33
-5 -7 0 214.06 14.06
-5 -7 0 193.34 11.92
5 -7 0 187.28 16.96
-7 5 0 188.95 12.7
-5 7 0 114.57 9
7 5 0 203.91 10.5
-5 7 1 784.32 30.61
-7 5 -1 877.08 32.45
5 -7 1 807.14 34.23
7 -5 -1 801.78 33.27
7 5 1 819.38 30.88
-7 -5 1 821.72 31.12
-5 -7 -1 849.67 33.07
7 -5 -1 775.15 29.91
7 -5 -1 748.89 33.91
-5 7 2 187.39 12.28
7 -5 -2 215.75 16.65
-5 -7 -2 185.27 14.89
-7 5 -2 193.94 13.44
-7 -5 2 215.2 11.95
7 -5 -2 225.45 11.08
7 5 2 207.26 12.02
7 -5 -2 213.17 15.06
5 -7 2 185.79 16.56
7 5 3 72.62 8.92
5 -7 3 86.7 14.87
7 -5 -3 78.5 12.04
5 7 -3 79.96 8.73
-5 -7 -3 90.97 12.75
-7 -5 3 86.6 8.22
-7 5 -3 74.71 10.83
7 -5 -3 78.53 8.2
-5 7 3 75.71 10.12
7 -5 -3 79.79 13.87
7 -5 -4 12.46 13.38
-5 -7 -4 0.44 11.76
5 7 -4 -4.84 7.38
5 -7 4 2.55 13.36
-5 7 4 -2.44 10.04
7 -5 -4 12.93 6.84
7 -5 -4 16.34 10.88
-7 5 -4 14.22 9.62
7 5 4 16.67 8.1
-7 5 -5 301.98 17.57
7 -5 -5 320.3 17.75
7 -5 -5 312.32 15.14
-7 5 -6 276.05 16.89
7 -5 -6 277.83 16.62
-7 5 -7 72.01 12.42
7 -5 -7 91.22 12.36
-7 5 -8 596.63 27.93
7 -5 -8 621.47 26.87
-7 5 -9 507.42 24.95
7 -5 -9 495.89 23.37
-7 5 -10 15.7 14.33
-7 5 -10 -14.2 12.6
-7 5 -11 46.02 15.95
-7 5 -11 61.64 13.88
7 5 12 500.97 24.2
-7 5 -12 456.23 27.91
-7 5 -12 503.62 26.46
-7 5 -13 236.97 22.3
7 5 13 208.75 16.64
-7 5 -13 265.1 19.35
-7 5 -14 44.01 18.08
7 5 14 29.6 12.43
-7 5 -14 21.37 14.66
-7 5 -15 183.13 21.93
-7 5 -15 171.33 18.67
-7 5 -16 59.49 16.12
-7 5 -16 69.37 20.36
-7 5 -17 240.99 20.81
-7 5 -17 192.07 23.2
-7 5 -18 31.95 16.79
-7 5 -18 31.75 20.43
-7 5 -19 16.34 16.94
-7 5 -19 15.15 21.44
-7 5 -20 13.13 17.88
-7 5 -20 29.49 22.53
-7 5 -21 106.37 20.83
-7 5 -21 80.01 24.67
-7 5 -22 37.54 19
-7 5 -22 8.55 23.95
-7 5 -23 29.45 19.51
-7 5 -23 16.47 24.63
-7 5 -24 71.75 21.22
-7 5 -24 71.98 26.62
-7 5 -25 46.89 21.12
-7 5 -25 72.76 27.34
-7 5 -26 17.5 21.8
-7 5 -26 6.91 27.13
-6 7 -26 -8.42 27.87
-6 7 -25 -8.21 27.41
-6 7 -24 20.74 20.34
-6 7 -24 25.28 26.56
-6 7 -23 22.44 19.92
-6 7 -23 28.42 25.41
-6 7 -22 78.96 20.86
-6 7 -22 73.75 25.44
-7 -6 -21 -8.23 18.95
-6 7 -21 11.57 18.17
-6 7 -21 -3.62 23.3
-7 -6 -20 22.94 18.52
-6 7 -20 51.41 18.25
-6 7 -20 53.9 23.82
-7 -6 -19 50.2 18.65
-6 7 -19 78.71 23
-6 7 -19 72.51 18.18
6 7 18 11.55 15.11
-7 -6 -18 29.83 17.68
-6 7 -18 50.92 20.66
-6 7 -18 10.18 16.44
-7 -6 -17 76.33 18.2
-6 7 -17 49.89 16.71
6 7 17 79.55 15.46
-6 7 -17 65.87 21.98
-7 -6 -16 40.36 19.03
-7 -6 -16 59.52 18.01
-6 7 -16 41.33 16.67
6 7 16 32.22 14.64
-6 7 -16 74.93 20.86
-7 -6 -15 85.28 19.05
-7 -6 -15 67.78 17.76
-6 7 -15 72.09 16.61
6 7 15 92.25 15.08
-6 7 -15 67.6 20.08
-7 -6 -14 197.77 20.93
-7 -6 -14 211.78 20.37
-6 7 -14 222.05 19.63
-6 7 -14 179.17 22.27
6 7 14 247.59 18.53
-7 -6 -13 184.74 19.26
-7 -6 -13 194.05 20.44
6 7 13 198.53 17.65
-6 7 -13 228.94 22.21
-6 7 -13 211.66 18.75
-7 -6 -12 22.98 14.83
6 7 12 3.44 13.32
-6 7 -12 7.35 13.88
-6 7 -12 -9.68 18.02
-6 7 -11 512.21 27.37
6 -7 -11 562.05 27.12
-7 -6 -11 598.78 29.06
-7 -6 -10 185.2 17.43
-6 7 -10 172.27 16.74
6 -7 -10 209.94 16.95
6 -7 -9 363.38 21.41
-7 -6 -9 354.16 21.51
-6 7 -9 368.08 21.33
-7 -6 -8 82.42 14.09
-6 7 -8 76.75 13.15
6 -7 -8 69.93 13.85
-6 7 -7 550.68 26.63
6 -7 -7 590.32 27.01
6 -7 -6 186.86 16.21
-6 7 -6 221.9 15.91
-6 7 -5 169.83 14.18
-7 6 5 176.79 12.55
6 -7 -5 176.05 15.74
6 -7 -4 360.22 21.9
-7 6 4 352.95 17.31
-6 -7 4 332.88 17.09
6 -7 -4 361.46 20.15
6 -7 -3 526.91 27.82
-7 6 3 536.84 23.84
-6 -7 3 562.86 23.62
6 -7 -3 604.66 26.66
6 -7 -2 267.72 15.68
-7 6 2 286.29 12.56
-6 -7 2 260.7 12.31
6 -7 -2 256.79 17.58
6 7 2 237.92 11.26
6 7 1 486.28 13.61
6 -7 -1 417.87 19.38
-6 -7 1 493.87 14.72
-7 -6 -1 497.5 15.33
6 -7 -1 409.4 17.31
7 -6 1 447.2 18.09
-6 -7 0 447.11 20.59
-7 -6 0 415.04 19.8
7 -6 0 447.52 22.64
6 -7 0 412.49 22.73
6 7 0 425.99 18.98
7 6 0 432.31 18.28
6 -7 0 377.64 23.28
-6 -7 -1 533.06 25
-7 -6 1 588.89 23.81
6 -7 1 573.7 27.32
7 -6 -1 547.81 26.1
7 6 1 582.36 23.06
7 -6 -1 508.66 26.91
-7 -6 2 270.77 14.69
-6 -7 -2 281.91 16.97
7 -6 -2 262.45 18.93
6 -7 2 260.66 18.75
7 -6 -2 288.92 17.44
7 6 2 245.89 14.07
-6 -7 -3 575.2 25.25
-7 6 -3 543.93 24.38
7 -6 -3 546.9 26.8
7 -6 -3 511.69 25.1
6 -7 3 532.69 26.85
-7 -6 3 529.39 22.1
7 -6 -4 376.68 22.12
-7 6 -4 380.81 19.38
7 -6 -4 351.32 16.64
7 -6 -4 350.58 19.88
-7 6 -5 199.87 14.77
7 -6 -5 190.77 15.37
7 -6 -5 207.12 18.09
-7 6 -6 225.31 15.74
7 -6 -6 205.96 16.01
-7 6 -7 579.87 26.94
7 -6 -7 577.52 26.64
7 -6 -8 56.62 12.76
-7 6 -8 58.2 12.43
7 -6 -9 324.74 19.14
-7 6 -9 306.19 19.71
-7 6 -10 161.64 16.02
-7 6 -11 577.77 31.29
-7 6 -11 604.55 29.36
-7 6 -12 2.39 17.18
7 6 12 -2.14 12.87
-7 6 -12 -16.2 14.04
-7 6 -13 170.77 20.41
7 6 13 189.8 16.35
-7 6 -13 165.72 17.89
-7 6 -14 188.91 22.16
7 6 14 233.21 17.62
-7 6 -14 168.57 18.88
-7 6 -15 94.22 20.01
7 6 15 74.47 13.98
-7 6 -15 80.46 16.19
-7 6 -16 67.3 20.39
-7 6 -16 61.4 15.99
-7 6 -17 43.18 15.95
-7 6 -17 78.27 20.93
-7 6 -18 38.22 16.34
-7 6 -18 -4.24 21
-7 6 -19 42.51 17.76
-7 6 -19 76.99 22.65
-7 6 -20 69.65 19.55
-7 6 -20 48.55 23.1
-7 6 -21 36.59 19.84
-7 6 -21 39.81 23.68
-7 6 -22 84.1 20.88
-7 6 -22 68.62 25.6
-7 6 -23 6.2 19.95
-7 6 -23 64.44 25.95
-7 6 -24 23.12 20.75
-7 6 -24 37.33 26.19
-7 6 -25 -12.89 20.54
-7 6 -25 13.69 27.15
-7 6 -26 -32.3 27.99
7 -7 0 292.98 19.84
-7 -7 0 317.67 17.23
-7 -7 -1 19.54 10.83
-7 -7 1 0.33 9.9
7 -7 1 17.19 13.66
7 -7 -1 4.44 12.55
7 -7 -1 6.87 14.33
7 7 1 15.7 7.88
7 -7 2 123.47 15.48
7 -7 -2 99.2 14.4
-7 -7 2 103.04 11.01
-7 -7 -2 105.55 12.99
7 -7 -2 102.37 16.26
-7 -7 3 108.55 10.71
7 -7 -3 107.57 16.67
-7 -7 -3 106.43 13.35
7 -7 -3 101.2 14.18
-7 7 -4 1359.99 50.94
7 -7 -4 1254.1 52.75
7 -7 -4 1333.61 51.31
-7 7 -5 11.81 11.26
7 -7 -5 1.42 12.58
7 -7 -5 -8.59 14.57
-7 7 -6 102.6 13.35
7 -7 -6 139.77 14.89
-7 7 -7 57.28 12.5
7 -7 -7 54 13.7
-7 7 -8 227.27 17.42
7 -7 -8 232.4 17.85
7 -7 -9 316.52 19.98
-7 7 -9 327.38 20.4
7 -7 -10 14.39 13.51
-7 7 -10 21.41 13.28
-7 7 -11 377.8 23.13
-7 7 -12 19.66 13.95
-7 7 -12 46.87 17.5
7 7 12 25.77 14.07
-7 7 -13 462.09 29.46
7 7 13 488.3 25.57
-7 7 -13 468.04 26.91
-7 7 -14 36.8 15.69
7 7 14 52.03 14.37
-7 7 -14 26.59 19.28
-7 7 -15 34.4 15.66
7 7 15 32.01 14.03
-7 7 -15 27.1 19.75
-7 7 -16 133.26 18.18
7 7 16 131.56 16.49
-7 7 -16 133.43 22.78
-7 7 -17 15.32 15.96
-7 7 -17 31.65 21.54
-7 7 -18 28.24 16.93
-7 7 -18 16.38 21.57
-7 7 -19 23 17.28
-7 7 -19 44.36 22.7
-7 7 -20 196.58 22.1
-7 7 -20 108.11 24.89
-7 7 -21 42.11 19.02
-7 7 -21 20.91 24.11
-7 7 -22 55.92 20.59
-7 7 -22 -16.61 24.83
-7 7 -23 42.28 20.47
-7 7 -23 35.54 25.55
-7 7 -24 10.84 26.89
-7 7 -24 18.24 20.51
-7 7 -25 -20.89 27.34
-7 7 -25 44.65 22.16
0 -8 0 1276.16 48.06
8 0 0 1247.24 44.59
0 8 0 1240.37 46.65
-8 0 0 1258.06 45.21
0 -8 0 1234.44 48.16
-8 0 0 1197.2 45.02
0 -8 1 1371.7 51.76
0 -8 -1 1347.1 51.89
0 8 -1 1327.62 50.31
8 0 1 1386.21 48.74
-8 0 -1 1374.11 49.43
-8 0 1 1373.98 48.65
-8 0 -1 1301.05 48.99
0 -8 1 1289.54 51.73
0 -8 -1 1386.86 52.14
-8 0 2 116.41 9.11
0 -8 2 105.44 14.06
0 -8 -2 147.84 15.06
0 8 -2 114.46 11.77
-8 0 -2 142.04 11.19
8 0 2 155.4 9.71
-8 0 2 136.01 8.49
-8 0 -3 119.46 10.91
0 -8 3 127.47 13.78
-8 0 -3 111.71 10.95
-8 0 3 98.16 7.19
0 -8 -3 105.57 14.24
0 8 -3 134.5 11.67
8 0 3 100.23 9.01
0 8 -3 135.69 12.54
-8 0 -4 621.93 26.45
0 -8 4 686.8 28.39
-8 0 4 612.13 23.03
0 -8 -4 655.82 28.81
8 0 -4 601.64 24.87
0 8 -4 630 27.18
-8 0 -4 694.61 27.08
8 0 4 650.61 25.57
0 -8 5 6.58 11.44
0 -8 -5 0.94 12.61
-8 0 -5 -17.59 10.46
-8 0 -5 -4.73 10.14
0 8 -5 -5.4 10.93
0 -8 6 131.24 14.53
-8 0 -6 135.67 12.87
0 -8 -6 122.87 15.08
-8 0 -6 124.4 12.93
0 -8 7 1734.95 65.9
0 8 7 1779.25 65.83
-8 0 -7 1667.52 65.29
-8 0 -7 1894.88 66.25
0 -8 -7 1775.13 66.71
0 8 8 383.12 21.33
0 -8 -8 382.78 22.36
-8 0 -8 375.75 21.02
-8 0 -8 401.86 21.38
0 8 9 155.33 15.27
-8 0 -9 142.37 15.56
-8 0 -9 180.56 15.38
0 -8 -9 196.91 16.62
0 8 -9 164.73 13.4
0 8 10 43.69 13.31
0 8 -10 43.74 10.53
-8 0 -10 52.28 13.67
0 -8 -10 36.36 14.73
-8 0 -10 49.57 12.76
-8 0 -11 14.16 12.8
0 8 11 45.31 13.57
0 8 -11 35.61 14.19
-8 0 -11 54.04 14.7
0 -8 -11 27.09 14.58
0 8 -11 35.09 10.82
-8 0 -12 95.17 14.75
0 8 12 66.52 14.95
0 8 -12 109.19 16.67
-8 0 -12 89.79 16.54
0 -8 -12 102.03 16.05
0 8 -12 102.55 12.4
-8 0 -13 -7.94 15.66
0 -8 -13 14.95 15.04
-8 0 -13 -26.73 14.48
0 8 -13 21.54 16.75
0 8 13 -2.52 14.28
0 8 -13 25.41 12.69
-8 0 -14 4.62 16.59
-8 0 -14 -16.55 14.54
0 -8 -14 -8.1 15.23
0 8 -14 -2.2 16.6
0 8 14 -1.34 14.93
0 8 -14 28.52 12.04
0 8 -15 74.4 18.59
-8 0 -15 63.58 16.62
0 8 15 74.58 17.11
-8 0 -15 84.46 18.57
0 -8 -15 80.87 17.55
0 8 -15 62.49 13.99
0 -8 -16 223.65 21.01
0 8 -16 258.2 23.1
-8 0 -16 222.03 22.45
-8 0 -16 205.38 20.52
-8 0 -17 539.51 33.33
0 8 -17 607.78 34.14
0 -8 -17 619.82 32.49
-8 0 -17 654.04 32.57
0 -8 -18 46.45 17.9
-8 0 -18 20.15 16.71
-8 0 -18 20.24 19.49
0 8 -18 40.85 20.19
0 -8 -19 135.19 20.14
-8 0 -19 86.47 19.11
-8 0 -19 52.78 21.35
0 8 -19 94.86 22.95
0 -8 -20 45.46 16.05
-8 0 -20 -17.11 17.59
0 8 -20 17.13 22.1
-8 0 -20 6.43 20.61
0 -8 -21 -14.78 12.68
-8 0 -21 15.68 18.36
-8 0 -21 32.54 22.16
0 8 -21 5.27 22.59
-8 0 -22 31.46 23.29
-8 0 -22 24.23 19.14
0 8 -22 42.89 24.47
-8 0 -23 12.11 23.4
-8 0 -23 -13.48 19.16
-8 0 -24 110.7 26.26
-8 0 -24 98.83 21.88
-8 0 -25 36.55 25.64
-8 0 -25 41.41 20.92
-8 0 -26 20.2 26.08
-8 0 -26 26.72 21.36
-8 0 -27 -33.92 22.55
-8 -1 -27 13.75 22.03
-8 -1 -26 18.89 26.02
-8 -1 -26 46.85 21.72
-8 -1 -25 44.28 25.97
-8 -1 -25 -4.36 20.34
-8 -1 -24 40.24 24.05
-8 -1 -24 27.72 20.1
-1 8 -24 37.55 26.37
-8 -1 -23 59.31 23.74
-8 -1 -23 61.31 20.61
-1 8 -23 83.17 26.42
-8 -1 -22 53.37 22.74
-8 -1 -22 49.35 19.33
-1 8 -22 100.25 25.57
-8 -1 -21 25.53 21.45
-8 -1 -21 -4.87 18.11
-1 8 -21 36.82 22.86
-8 -1 -20 20.16 20.25
-8 -1 -20 6.62 18.01
1 -8 -20 -3.28 10.46
-1 8 -20 18.77 22.12
-8 -1 -19 21.05 17.62
-1 8 -19 66.24 22.2
-8 -1 -19 26.41 20.2
-8 -1 -18 305.45 22.72
-8 -1 -18 273.58 24.8
-1 8 -18 304.21 25.68
-8 -1 -17 20.12 19.25
-1 8 -17 38.53 19.34
1 -8 -17 5.92 15.43
-8 -1 -17 -11.07 16.65
-8 -1 -16 12.24 15.89
1 8 16 19.3 16
-1 8 -16 24.91 18.44
-1 8 -16 2.58 13.81
1 -8 -16 -5.72 16.58
-8 -1 -16 12 17.72
-8 -1 -15 158.04 19.81
-1 8 -15 179.4 20.63
1 8 15 121.77 17.74
-8 -1 -15 136.79 18.15
-1 8 -15 122.9 16.14
1 -8 -15 148.88 18.72
-8 -1 -14 93.69 17.45
-1 8 -14 77.21 18.57
1 8 14 86.48 15.99
-8 -1 -14 79.71 16.41
-1 8 -14 135.04 15.31
1 -8 -14 75.21 16.91
-8 -1 -13 89.04 17.02
-1 8 -13 120.86 18.14
1 8 13 89.85 15.52
-8 -1 -13 64.93 15.21
-1 8 -13 130.5 15.07
1 -8 -13 90.22 16.73
-8 -1 -12 27.95 14.6
-1 8 -12 4.79 15.22
1 8 12 19.35 13.54
-8 -1 -12 -2.61 13.4
-1 8 -12 16.92 11.59
1 -8 -12 -16.58 14.98
-8 -1 -11 14.81 13.82
-1 8 -11 19.57 14.67
1 8 11 9.96 13.36
-8 -1 -11 5.55 12.52
1 -8 -11 9.47 14.34
-1 8 -11 19.47 11.69
-1 8 -10 113.51 12.65
-8 -1 -10 85.31 13.73
1 -8 -10 84.92 15.16
-8 -1 -10 94.08 14.76
1 8 10 100.67 13.82
1 -8 -9 429.3 23.32
1 8 9 411.13 22.48
-1 8 -9 450.1 21.69
-8 -1 -9 414.17 22.61
-8 -1 -9 403.48 22.33
1 8 8 426.23 22.42
-8 -1 -8 408.9 21.92
-8 -1 -8 445.87 22.25
1 -8 -8 422.89 23.56
-1 -8 8 401.69 21.95
-8 -1 -7 564.09 24.9
-1 -8 7 540.74 25.19
-8 -1 -7 525.49 24.85
1 -8 -7 477.68 25.78
-8 -1 -6 9.19 10.6
-8 -1 -6 4.63 10.25
1 -8 -6 -7.31 12.93
-1 -8 6 16.7 11.64
-8 -1 -5 30.21 10.46
-1 -8 5 36.57 11.99
1 -8 -5 24.4 13.17
-8 -1 -5 41.89 10.19
1 -8 -4 995.85 41.39
-8 -1 -4 1022.45 39.04
-8 1 4 1037.12 36.7
8 -1 4 1093.42 38.67
-1 -8 4 1040.77 40.55
8 1 -4 946.76 36.93
-8 -1 -4 1086.08 39.82
-8 -1 -3 394.59 18.42
1 -8 -3 367.34 20.86
-8 -1 -3 361.79 17.32
-1 -8 3 356.54 20.04
8 -1 3 410.61 17.15
-1 8 -3 384.76 20.06
-8 1 3 365.68 15.73
-8 -1 -2 468.25 20.05
-8 1 2 439.47 18.61
1 -8 -2 453.45 23.19
-1 -8 2 432.13 22.38
-8 1 2 460.89 18.36
8 -1 2 439.29 18.95
1 -8 -2 473.52 23.89
-1 8 -2 458.62 22.04
-8 -1 -2 427.62 19.02
-8 -1 -1 182.42 10.93
-8 1 1 200.8 11.93
-8 1 1 221.23 11.42
-1 -8 1 184.76 15.52
1 -8 -1 189.72 16.2
8 1 -1 176.06 9.62
-1 -8 1 196.91 15.65
1 -8 -1 226.61 17.44
-8 -1 -1 209.78 12.24
-8 1 0 16.19 8.88
-8 -1 0 11.82 7.26
-1 -8 0 16.17 12.17
1 -8 0 2.61 12.78
-8 1 0 -2.76 7.67
1 8 0 30.05 9.89
1 -8 0 18.18 13.88
-1 -8 0 22.95 12.39
-8 -1 0 15.81 7
-8 1 0 20.95 9.02
8 1 0 6.99 5.94
1 -8 1 160.51 15.42
-8 -1 1 165.57 9.96
1 8 -1 176.88 13
-1 -8 -1 167.06 15.22
-8 1 -1 172.58 12.43
1 -8 1 179.98 16.39
-1 -8 -1 169.28 15.21
8 1 1 173.14 10.1
-8 1 -1 190.94 11.95
1 8 -2 443.36 20.02
-1 -8 -2 393.07 21.83
1 -8 2 408.87 22.03
-8 -1 2 411.86 16.89
8 1 2 431.36 18.17
-8 1 -2 447.81 19.57
-8 -1 3 324.2 13.8
1 -8 3 350.98 20.11
1 8 -3 358.97 17.4
1 8 -3 376.32 17.65
8 -1 -3 328.95 16.8
8 1 3 355.29 16.05
-8 1 -3 384.17 17.72
-1 -8 -3 356.33 20.13
1 -8 4 1068.18 41.88
1 8 -4 1036.53 39.97
-1 -8 -4 1058.6 42.15
1 8 -4 1037.73 40.14
8 -1 -4 971.71 39.37
8 1 4 1117.24 39.45
-8 1 -4 1064.3 40.59
1 -8 5 43.21 12.68
1 8 -5 38.08 9.51
-1 -8 -5 38.04 13.02
1 8 -5 46.67 10.01
-8 1 -5 49.51 10.53
-8 1 -5 43.94 10.26
-8 1 -6 5.1 10.6
1 -8 6 13 12.75
-8 1 -6 1.31 10.04
-1 -8 -6 0.5 13.31
1 8 -6 -11.14 9.63
-1 8 6 0.42 11.43
-8 1 -7 555.01 25.22
1 -8 7 521.69 26
-1 8 7 569.64 25.38
-1 -8 -7 536.94 26.67
-8 1 -7 495.13 25.03
-1 -8 -8 397.31 22.83
-8 1 -8 453.56 21.97
-8 1 -8 377.48 21.86
-1 8 8 405.02 21.59
1 8 -9 442.12 20.81
-1 8 9 447.29 23.1
-1 -8 -9 422.96 24.31
-8 1 -9 423.68 23.58
-8 1 -9 462.28 23.36
1 8 -10 103.8 11.24
-1 8 10 110.31 14.61
-1 -8 -10 120.95 16.05
-8 1 -10 75.46 14.25
-8 1 -10 122.12 15.17
1 8 -10 89.7 14.34
1 8 -11 -3.7 9.59
-1 8 11 8.52 12.86
-8 1 -11 3.19 14.28
-1 -8 -11 28.69 14.39
-8 1 -11 10.64 12.36
1 8 -11 19.8 13.31
1 8 -12 2.88 9.9
-1 8 12 -0.6 14.18
-8 1 -12 1.36 14.91
-1 -8 -12 2.55 15.1
-8 1 -12 3.95 14
1 8 -12 13.02 14.18
-8 1 -13 81.63 15.59
-1 8 13 66.75 15.62
1 8 -13 76.04 17.57
-1 -8 -13 55.2 15.95
-8 1 -13 79.27 17.31
1 8 -13 95.03 12.97
-1 8 14 101.09 17.28
1 8 -14 128.95 18.7
-1 -8 -14 116.51 17.99
-8 1 -14 103.59 18.22
-8 1 -14 93.49 16.39
-1 -8 -15 167.97 19.33
-8 1 -15 114.6 19.69
1 8 -15 146.85 19.44
-8 1 -15 143.46 18.13
-1 -8 -16 15.77 16.7
1 8 -16 41.17 18.27
-8 1 -16 17.59 18.23
-8 1 -16 22.17 15.74
-1 -8 -17 24.96 17.81
1 8 -17 28.3 18.56
-8 1 -17 19.51 18.88
-8 1 -17 2.48 15.91
-1 -8 -18 284.16 24.12
1 8 -18 237.29 25.51
-8 1 -18 279.38 25.99
-8 1 -18 292.85 22.98
-1 -8 -19 56.18 19.44
1 8 -19 33.61 21.81
-8 1 -19 37.98 20.73
-8 1 -19 48.51 18.07
-1 -8 -20 20.8 18.45
-8 1 -20 31.12 21.17
-8 1 -20 22.54 18.17
-8 1 -21 37.02 21.83
-8 1 -21 -1.97 18.19
-8 1 -22 111.94 25.15
-8 1 -22 92.62 21.29
-8 1 -23 84.49 24.53
-8 1 -23 47.92 19.87
-8 1 -24 21.48 24.15
-8 1 -24 22.43 20.29
-8 1 -25 1.31 24.98
-8 1 -25 -26.12 20.46
-8 1 -26 -13.5 25.14
-8 1 -26 -11.12 21.14
-8 1 -27 -3.4 21.69
-8 -2 -26 9.11 21.2
-8 -2 -26 16.2 26.11
-2 8 -26 26.24 28.04
-8 -2 -25 69.93 22.06
-8 -2 -25 11.79 25.92
-2 8 -25 53.76 27.73
-8 -2 -24 4.29 20.22
-8 -2 -24 32.95 23.98
-2 8 -24 65.76 27.12
-8 -2 -23 -3.12 19.4
-8 -2 -23 43.59 23.09
-2 8 -23 62.38 25.3
-8 -2 -22 74.42 24.29
-2 8 -22 8.11 23.94
-8 -2 -22 35.43 19.35
-8 -2 -21 75.69 23.2
-2 8 -21 82.54 24.54
-8 -2 -21 67.74 19.15
-8 -2 -20 89.32 22.52
-2 8 -20 86.47 23.2
-8 -2 -20 38.92 18.39
-8 -2 -19 39.45 20.85
-8 -2 -19 32.02 17.72
-2 8 -19 48.56 22.15
-8 -2 -18 22.01 17.37
-8 -2 -18 31.69 20.19
-2 8 -18 28.43 15.15
2 -8 -18 -30.21 12.2
-2 8 -18 38.95 20.84
-8 -2 -17 78.77 17.43
2 8 17 89.83 17.72
-8 -2 -17 100.18 20.03
-2 8 -17 71.61 20.19
-2 8 -17 78.1 16.3
-8 -2 -16 58.65 16.8
2 8 16 65.67 16.5
2 -8 -16 64.57 15.37
-2 8 -16 49.16 15.23
-8 -2 -16 64.71 19.22
-2 8 -16 85.95 20.22
-2 8 -15 81 19.45
2 8 15 77.71 16.62
-8 -2 -15 100.7 17.22
2 -8 -15 80.55 16.54
-8 -2 -15 109.84 18.59
-2 8 -15 106.45 15.77
-2 8 -14 15.18 17.49
2 8 14 -2.59 14.37
-8 -2 -14 15.6 14.87
2 -8 -14 5.21 15.64
-8 -2 -14 14.48 16.46
-2 8 -14 11.91 13.23
-2 8 -13 163.8 20.1
2 8 13 156.64 16.44
-8 -2 -13 146.98 17.79
2 -8 -13 164.8 18.15
-8 -2 -13 145.95 18.68
-2 8 -13 152.28 16.59
-2 8 -12 100.33 17.82
-2 8 -12 91.19 13.71
-8 -2 -12 122.01 15.9
-8 -2 -12 71.79 16.04
2 -8 -12 74.6 15.81
2 8 12 101.21 15.22
-2 8 -11 44.44 12.69
-8 -2 -11 68.97 14.2
-8 -2 -11 40.99 14.44
2 -8 -11 45.13 15.03
2 8 11 39.16 13.67
-2 8 -10 123.16 13.75
-8 -2 -10 122.13 15.19
2 8 10 130.6 15.19
2 -8 -10 123.7 15.75
-8 -2 -10 108.28 14.95
2 8 9 205.92 17.31
-2 8 -9 240.86 16.63
2 -8 -9 233.92 18.35
-8 -2 -9 241.8 17.68
-8 -2 -9 262.34 17.74
-2 -8 8 64.53 12.48
-8 -2 -8 76.05 12.67
2 -8 -8 58.72 13.85
-2 8 -8 56.34 11.64
-8 -2 -8 47.52 12.49
-8 -2 -7 628.22 29.06
-8 -2 -7 725.61 30.1
-2 -8 7 684.27 29.34
2 -8 -7 677.26 30.77
-2 -8 6 1.61 11.13
-8 -2 -6 4.46 10.6
2 -8 -6 8.77 12.68
-8 -2 -6 -0.76 10.3
-2 -8 5 153.96 13.65
-8 -2 -5 157.63 12.51
2 -8 -5 137.1 15.14
-8 -2 -5 157.09 13.27
-2 -8 4 217.11 15.45
8 -2 4 219.63 12.38
2 -8 -4 176.75 16.5
-8 -2 -4 221.2 14.37
-8 -2 -4 210.52 13.24
-2 -8 3 676.88 29.21
2 -8 -3 666.38 30.42
-8 2 3 676.27 26.12
-8 -2 -3 772.17 28.63
-8 -2 -3 653.65 26.9
-8 -2 -2 43.88 9.33
-8 2 2 49.48 8.37
2 -8 -2 20.41 13.05
-2 -8 2 53.97 12.15
2 -8 -2 29.5 13.73
-8 2 2 40.38 7.39
8 2 -2 45.26 5.41
-8 -2 -2 46.49 7.91
-8 -2 -1 426.56 18.69
2 -8 -1 476.23 24.61
-2 -8 1 483.66 22.45
-8 2 1 505.16 19.92
-8 2 1 458.46 20.05
-2 -8 1 471.5 22.97
2 -8 -1 466.66 23.75
2 8 1 473.31 21.39
-8 -2 -1 507.26 20.47
8 2 -1 467.43 18.38
8 2 0 130.7 7.4
-8 -2 0 97.94 8.9
-8 2 0 83.02 10.04
2 -8 0 95.97 14.21
-2 -8 0 72.38 12.91
-2 -8 0 104.37 13.16
-8 2 0 77.65 11.09
2 -8 0 64.06 14.41
2 8 0 79.57 10.77
-8 2 0 98.37 9.37
-8 -2 0 71.03 6.88
-8 -2 1 438.09 18.42
2 -8 1 509.72 25.25
-8 2 -1 499.5 22.24
-2 -8 -1 507.46 23.83
2 -8 1 536.75 24.99
-8 2 -1 519.92 22.01
-2 -8 -1 502.75 23.89
2 8 -1 505.91 22.14
8 2 1 550.97 20.12
-8 2 -1 547.47 21.67
-8 -2 1 515.49 19.98
-8 2 -2 57.48 9.41
-8 2 -2 46.89 10.67
2 -8 2 42.47 13.41
8 2 2 68.91 7.67
-2 -8 -2 57.97 12.56
2 8 -2 57.01 10.22
-8 2 -2 56.07 10.66
-8 -2 2 55.19 6.39
2 8 -3 654.16 27.09
-2 -8 -3 650.87 29.37
-8 2 -3 675.64 27.72
8 2 3 693.3 26.31
8 -2 -3 627.73 27.63
2 -8 3 661.16 29.55
2 8 -4 269.08 13.58
2 -8 4 208.65 16.84
8 -2 -4 194.91 14.56
2 8 -4 188.1 12.81
-2 -8 -4 211.95 16.5
-2 8 4 219.96 14.92
-8 2 -4 218.63 14.09
8 2 4 190.74 12.06
8 -2 -5 136.81 10.34
2 -8 5 166.89 15.73
2 8 -5 166.98 11.36
-8 2 -5 156.83 13.23
-2 -8 -5 157.75 15.69
-2 8 5 140.37 13.3
8 -2 -5 159.81 13.16
2 8 -5 153.71 11.56
2 -8 6 -5.6 12.83
2 8 -6 13.64 7.98
-8 2 -6 12.6 11.08
-2 -8 -6 23.68 13.1
2 8 -6 11.02 8.74
-2 8 6 5.4 10.89
-2 8 7 657.26 28.81
-8 2 -7 647.63 29.19
2 -8 7 649.96 30.2
2 8 -7 644.31 26.75
-2 -8 -7 663.3 30.28
2 8 -7 642.91 27.13
-8 2 -7 654.36 28.9
-2 8 8 76.2 12.97
-2 -8 -8 67.48 14.37
-8 2 -8 61.35 13.26
-8 2 -8 53.45 12.32
-2 8 9 200.53 16.42
-2 -8 -9 221.52 17.97
-8 2 -9 189.18 17
-8 2 -9 194.16 16.17
-8 2 -10 130.98 14.8
-2 -8 -10 97.6 16.11
-2 8 10 88.62 14.6
2 8 -10 127.69 11.19
-8 2 -10 99.34 15.41
2 8 -10 96.39 13.03
-8 2 -11 78.23 14.09
-2 -8 -11 73.93 16.01
-2 8 11 44.87 14.52
2 8 -11 67.01 10.44
-8 2 -11 68.85 15.26
2 8 -11 59.94 13.2
2 8 -12 77.12 11.31
-8 2 -12 106.67 15.45
2 8 -12 80.38 14.88
-2 8 12 54.59 15.49
-8 2 -12 73.76 16.12
-2 -8 -12 79.89 16.64
2 8 -13 134.33 17.73
-8 2 -13 161.65 18.74
-8 2 -13 169.75 17.94
-8 2 -14 32.41 16.52
2 8 -14 47.28 16.06
-8 2 -14 25.11 15.46
-8 2 -15 87.19 19
2 8 -15 114.25 18.56
-8 2 -15 104.64 17.27
2 8 -16 105.42 18.42
-8 2 -16 62.9 19.89
-8 2 -16 64.12 16.53
-8 2 -17 77.43 20.55
-8 2 -17 149.31 18.98
-8 2 -18 3.97 19.48
-8 2 -18 11.25 16.61
-8 2 -19 90.65 21.88
-8 2 -19 18.83 17.49
-8 2 -20 71.85 22.05
-8 2 -20 75.53 18.98
-8 2 -21 45.46 23.23
-8 2 -21 102.47 19.7
-8 2 -22 4.72 21.63
-8 2 -22 25.17 19.49
-8 2 -23 35.71 24.4
-8 2 -23 40.89 20.34
-8 2 -24 23.09 24.66
-8 2 -24 12.96 20.4
-8 2 -25 99.09 26.12
-8 2 -25 26.4 21.43
-8 2 -26 10.86 25.35
-8 2 -26 57.18 22.12
-8 2 -27 46.45 22.45
-8 -3 -26 -2.3 21.56
-8 -3 -26 13.38 25.09
-3 8 -26 21.51 27.94
-8 -3 -25 33.73 21.65
-8 -3 -25 2.61 24.53
-3 8 -25 18.3 27.05
-8 -3 -24 26.34 20.49
-8 -3 -24 15.18 24.5
-3 8 -24 26.7 26.45
-8 -3 -23 18.13 20.07
-8 -3 -23 17.06 23.97
-3 8 -23 28.29 25.95
-8 -3 -22 49.43 19.6
-8 -3 -22 55.36 24.43
-3 8 -22 -13.07 23.69
-8 -3 -21 9.91 18.02
-8 -3 -21 42.68 22.28
-3 8 -21 51.75 23.96
-8 -3 -20 40.14 18.22
-8 -3 -20 8.55 20.84
-3 8 -20 75.29 23.1
-3 8 -19 181.45 19.9
-3 8 -19 164.45 24.73
-8 -3 -19 166.85 21.18
-8 -3 -19 179.02 24.19
-8 -3 -18 86.44 18.78
-3 8 -18 67.49 16.79
3 8 18 62.62 16.99
-8 -3 -18 83.1 20.28
-3 8 -18 63.13 21.03
-8 -3 -17 11.99 16.23
-3 8 -17 16.44 14.74
3 -8 -17 3.59 9.69
3 8 17 12.73 15.39
-8 -3 -17 24.74 19.22
-3 8 -17 15.52 19.57
-8 -3 -16 66.43 17.02
-3 8 -16 63.33 15.86
3 -8 -16 -3.48 11.34
-8 -3 -16 27.62 18.5
-3 8 -16 81.41 20.05
3 8 16 60.27 16.01
-8 -3 -15 87.79 17.19
3 8 15 71.57 15.54
-8 -3 -15 86.92 18.49
3 -8 -15 121.73 15.23
-3 8 -15 94.17 20.32
-3 8 -15 71.75 15.79
-8 -3 -14 181.59 18.48
3 8 14 125.86 17.31
-8 -3 -14 178.25 19.93
3 -8 -14 183.66 18.28
-3 8 -14 199.78 20.99
-3 8 -14 157.17 17.37
-8 -3 -13 218.35 18.82
3 8 13 181.72 17.37
-8 -3 -13 183.53 19.06
3 -8 -13 206.38 18.29
-3 8 -13 158.88 20.35
-3 8 -13 181.05 17.49
-8 -3 -12 24.31 14.25
3 8 12 15.23 13.33
-8 -3 -12 25.87 14.86
3 -8 -12 1.8 14.39
-3 8 -12 12.03 16.61
-3 8 -12 37.19 13.13
3 8 11 183.69 16.76
-3 8 -11 174.21 16.22
3 -8 -11 178.72 17.61
-8 -3 -11 196.3 17.38
-8 -3 -11 195.09 17.85
3 8 10 221.23 17.34
-8 -3 -10 239.69 17.98
3 -8 -10 224.25 18.09
-8 -3 -10 206.49 17.77
-3 8 -10 215.95 16.57
-3 8 -9 34.59 12.08
-8 -3 -9 32.13 12.87
3 -8 -9 23.07 13.52
-8 -3 -9 3.4 11.9
3 -8 -8 61.84 14.01
-8 -3 -8 65.71 12.68
-3 8 -8 71.14 12.54
-8 -3 -8 68.91 12.58
-3 -8 8 58.94 12.04
-8 -3 -7 128.3 13.36
-8 -3 -7 120.28 13.56
3 -8 -7 136.61 15.34
-3 -8 7 136.92 13.17
-8 -3 -6 203.24 15.17
-3 -8 6 221.29 14.94
3 -8 -6 215.15 16.8
-8 -3 -6 200.2 14.59
3 -8 -5 469.83 24.45
-8 -3 -5 491.97 22.7
-3 -8 5 487.88 22.44
-8 -3 -5 467.74 21.71
3 -8 -4 267.34 18.27
-8 -3 -4 300.17 16.29
-3 -8 4 270.52 16.51
-8 -3 -4 261.45 14.75
-8 -3 -3 648.32 26.18
-3 -8 3 659.05 28.41
3 -8 -3 666.13 29.98
-8 3 3 637.28 25.99
-8 -3 -3 701.44 27.59
3 -8 -3 685.3 31.32
-8 3 2 328.7 15.61
-3 -8 2 335.37 18.21
3 -8 -2 339.01 19.99
-8 -3 -2 341.55 16.39
-8 3 2 310.12 15.04
-8 -3 -2 306.06 14.66
3 -8 -2 314.81 20.71
-8 -3 -1 110.19 7.89
-8 3 1 114.18 9.46
8 3 -1 107.06 6.68
-8 3 1 121.98 10.58
-3 -8 1 100.13 12.81
3 -8 -1 89.5 14.46
3 -8 -1 107.27 15.72
-3 -8 1 133.93 12.51
-8 -3 -1 115.4 10.01
-8 -3 0 47.2 8.19
3 8 0 56.98 10.1
-8 3 0 45.53 9.46
3 -8 0 45.96 13.19
-3 -8 0 44.39 12.04
-8 3 0 46.39 8.49
3 -8 0 45.62 14.43
-3 -8 0 41.92 11.49
-8 3 0 55.64 10.73
8 3 0 54.48 5.78
-8 -3 1 113.73 8.57
3 -8 1 101.65 14.52
-8 3 -1 111.27 11.41
8 3 1 105.22 7.82
3 8 -1 122.66 11.08
-3 -8 -1 97.2 12.93
-8 3 -1 117.25 10.53
-8 3 -1 101.76 12.04
3 -8 1 114.05 15.78
3 8 -2 365.74 17.65
-3 -8 -2 351.65 19.84
8 3 2 334.06 15.58
-8 3 -2 360.21 17.65
3 -8 2 347.49 20.58
-8 3 -2 378.88 18.19
-8 3 -2 391.42 19.05
8 -3 -2 323.89 18.86
-8 3 -3 670.31 26.8
8 3 3 619.59 25.09
3 8 -3 641.9 26.16
-3 -8 -3 632.7 28.53
-8 3 -3 666.27 27.14
3 -8 3 618.5 29.02
8 -3 -3 582.3 27.38
-8 3 -3 606.26 27.26
-3 8 3 649.3 26.68
-3 8 4 247.68 15.4
3 -8 4 240.63 18.21
3 8 -4 213.98 13.75
8 -3 -4 268.87 14.31
-3 -8 -4 247.37 17.43
8 -3 -4 255.2 16.55
3 8 -4 208.24 13.64
8 3 4 262.69 13.35
-8 3 -4 286.79 15.72
-3 8 5 400.51 20.7
3 -8 5 431.49 23.38
8 -3 -5 438.85 19.37
3 8 -5 435.26 19.21
-3 -8 -5 414.23 22.64
8 -3 -5 407.56 21.62
-8 3 -5 468.47 21.36
-3 8 6 172.9 14.24
-8 3 -6 175.21 14.33
-3 -8 -6 209.64 16.61
3 8 -6 151.19 11.57
8 -3 -6 168.78 12.11
3 -8 6 197.48 16.65
-3 -8 -7 124.21 15.49
-3 8 7 139.81 13.96
-8 3 -7 148.33 13.97
-3 -8 -8 68.91 14.53
-8 3 -8 58.14 14.3
-3 8 8 50.29 12.61
-8 3 -8 59.08 12.81
-3 -8 -9 12.34 14.09
-8 3 -9 19.78 13.72
3 8 -9 40.53 11.23
-3 8 9 14.6 13.07
-8 3 -9 15.56 12.07
-3 -8 -10 201.91 18.61
-8 3 -10 225.86 18.64
3 8 -10 221.07 15.84
-3 8 10 228.27 17.82
-8 3 -10 217.18 17
3 8 -10 200.13 13.71
3 8 -11 165.91 15.41
-8 3 -11 194.48 18.77
-3 8 11 191.51 18.17
-8 3 -11 190.88 16.66
3 8 -12 16.21 12.78
-8 3 -12 25.38 16.1
-8 3 -12 8.52 13.37
-8 3 -13 173.28 20.29
-8 3 -13 164.14 17.29
-8 3 -14 174.4 18.71
-8 3 -14 192.55 21.38
-8 3 -15 59.95 16.34
-8 3 -15 56.06 18.43
-8 3 -16 86.51 17.43
-8 3 -16 66.34 19.56
-8 3 -17 10.18 16.21
-8 3 -17 35.83 20.14
-8 3 -18 48.54 20.73
-8 3 -18 76.39 18.11
-8 3 -19 144.21 23.51
-8 3 -19 140.11 20.42
-8 3 -20 29.9 21.69
-8 3 -20 13.15 17.37
-8 3 -21 13.85 22.13
-8 3 -21 1.94 18.11
-8 3 -22 24 22.93
-8 3 -22 -10.01 18.68
-8 3 -23 41.01 23.9
-8 3 -23 27.93 19.43
-8 3 -24 -16.74 24.53
-8 3 -24 21.46 20.67
-8 3 -25 -30.79 26.03
-8 3 -25 -3.34 20.91
-8 3 -26 -13.8 26.14
-8 3 -26 29.33 22.09
-8 -4 -26 10.54 22
-8 -4 -26 9.29 25.8
-4 8 -26 19.2 28.57
-8 -4 -25 25.14 21.34
-8 -4 -25 16.8 24.93
-4 8 -25 18.73 27.93
-8 -4 -24 17.84 20.52
-8 -4 -24 15.07 24.53
-4 8 -24 53.23 27.12
-8 -4 -23 26.03 20.66
-8 -4 -23 19.47 24.44
-4 8 -23 8.82 25.37
-8 -4 -22 1.05 19.78
-8 -4 -22 14.09 22.15
-4 8 -22 35.42 24.91
-4 8 -21 31.25 18.11
-8 -4 -21 58.13 19.5
-8 -4 -21 49.68 23.17
-4 8 -21 57.49 23.98
-4 8 -20 85.34 18.81
-8 -4 -20 106.46 20.56
-8 -4 -20 117.98 23.45
-4 8 -20 110.61 24.14
-4 8 -19 5.81 17.08
-4 8 -19 29.17 21.74
-8 -4 -19 50.35 18.56
-8 -4 -19 70.19 21.6
4 8 18 4.67 15.45
-4 8 -18 18.5 15.99
-4 8 -18 21.79 20.69
-8 -4 -18 -10.83 20.25
-8 -4 -18 24.58 17.36
-4 8 -17 31.37 16.23
-4 8 -17 54.66 20.5
4 8 17 32.36 15.84
-8 -4 -17 78.03 20.18
-8 -4 -17 20.91 16.79
-4 8 -16 -11.34 15.51
4 8 16 -0.7 15.02
-4 8 -16 15.17 19.47
-8 -4 -16 28.91 18.86
-8 -4 -16 17.49 16.55
4 -8 -15 40.25 11.06
-4 8 -15 45.59 15.38
-4 8 -15 86.33 20.43
4 8 15 62.45 15.62
-8 -4 -15 32.87 18.18
-8 -4 -15 75.53 16.78
-8 -4 -14 75.84 17.06
-4 8 -14 94.05 19.45
4 8 14 92.88 15.92
-4 8 -14 58.29 15.58
-8 -4 -14 96.4 18.24
-8 -4 -13 40.46 15.73
-4 8 -13 24.67 17.46
4 8 13 45.27 13.96
-8 -4 -13 7.21 15.69
-4 8 -13 31.7 14.07
-8 -4 -12 542.48 28.73
4 -8 -12 598 27.54
-4 8 -12 573.58 27.78
4 8 12 513.01 26.99
-4 8 -12 461.94 29.66
-8 -4 -12 519.09 28.21
-8 -4 -11 259.73 19.75
4 -8 -11 273.6 19.37
-8 -4 -11 232.12 19.53
4 8 11 244.29 19.25
-4 8 -11 259.58 18.32
-8 -4 -10 35.98 13.87
-8 -4 -10 36.85 13.24
4 -8 -10 54.3 14.08
-4 8 -10 38.49 12.74
-8 -4 -9 87.22 13.96
-4 8 -9 92.75 13.59
4 -8 -9 86.31 14.48
-8 -4 -9 84.92 13.57
4 -8 -8 265.12 18.21
-8 -4 -8 261.92 17.84
-4 -8 8 246.1 16.05
-8 -4 -8 250.82 17.29
-4 8 -8 245.63 17.34
4 -8 -7 80.27 14.2
-8 -4 -7 50.54 12
-8 -4 -7 69.46 12.43
-4 8 -7 35.39 11.81
-4 -8 7 63.19 11.15
-8 -4 -6 28.54 11.21
-8 -4 -6 37.28 11.21
-4 -8 6 11.45 10.21
4 -8 -6 29.59 13.01
-4 -8 5 616.6 26.77
-8 -4 -5 644.38 27.71
-8 -4 -5 647.55 26.62
4 -8 -5 619.93 29.23
4 8 5 621.57 26.76
-8 -4 -4 700.78 30.11
-8 -4 -4 729.06 29.05
4 -8 -4 740.63 32.22
-4 -8 4 732.07 30.16
4 -8 -3 309.16 19.75
-4 -8 3 304.49 17.54
-8 4 3 324.33 15.66
4 -8 -3 333.32 21.38
-8 -4 -3 351.43 17.17
-8 -4 -3 298.17 15.23
4 -8 -2 195.15 16.41
-4 -8 2 188.45 14.51
-8 4 2 171.85 12
-8 -4 -2 189.39 12.68
4 -8 -2 184.42 17.99
-4 -8 1 1.15 11.01
-8 -4 -1 17.86 8.56
-4 -8 1 14.18 9.56
4 -8 -1 0.56 14.28
4 -8 -1 21.58 12.68
-8 4 1 19.16 8.89
-4 -8 0 120.85 11.71
-8 4 0 119.37 12.76
4 -8 0 123.84 16.5
-4 -8 0 115.62 13
-8 4 0 99.76 10.36
4 -8 0 105.43 14.8
-8 4 0 133.81 11.23
-8 4 -1 11.44 8.88
-8 4 -1 4.65 10.79
4 -8 1 24.61 14.6
-4 -8 -1 30.51 11.54
8 4 1 11.43 5.76
4 -8 1 37.76 13.61
-8 4 -1 34.61 9.89
4 8 -1 39.64 9.46
-4 8 1 42.15 8.71
-4 8 2 151.07 11.96
8 -4 -2 171.5 13.54
-8 4 -2 173.97 13
4 -8 2 161.47 16.7
4 8 -2 179 12.15
-8 -4 2 164.46 10.25
-8 4 -2 178.3 12.39
-4 -8 -2 161.45 15.13
8 -4 -2 141.78 15
-8 4 -2 167.38 13.87
8 4 2 173.01 10.45
8 -4 -3 278.11 15.88
4 -8 3 233.93 18.61
-4 -8 -3 241.42 17.28
4 8 -3 241.38 13.82
-4 8 3 246.38 14.83
-8 4 -3 279.89 15.45
8 -4 -3 252.34 17.36
8 4 3 245.7 13.23
8 4 4 655.05 27.52
-4 -8 -4 725.02 30.78
4 8 -4 685.54 27.61
-4 8 4 674.01 28.55
-8 4 -4 688.91 29.09
8 -4 -4 746.93 28.94
4 -8 4 716.32 31.68
8 -4 -4 645.87 30.27
-8 4 -5 667.15 28.93
8 -4 -5 634.18 29.77
-4 8 5 705.47 28.76
8 -4 -5 676.65 26.88
4 -8 5 683.24 31.19
8 -4 -5 644.32 27.72
-4 -8 -5 674.33 30.24
-4 -8 -6 37.56 13.29
8 -4 -6 38.97 10.5
-4 8 6 35.7 11.29
-8 4 -6 32.7 10.85
-4 -8 -7 55.9 14.43
-4 8 7 52.18 12.95
-8 4 -7 45.84 11.91
4 8 -8 230.29 15.11
-4 -8 -8 231.28 18.77
-4 8 8 252.34 17.3
-8 4 -8 251.5 17.19
-8 4 -9 86.69 15.91
-4 8 9 129.03 15.01
-8 4 -9 95.8 13.75
-8 4 -10 55.26 13.35
-8 4 -10 32.9 14.41
-8 4 -11 299.09 20.06
-8 4 -11 280.76 21.87
-8 4 -12 526.88 27.63
-8 4 -12 546.61 29.83
-8 4 -13 20.72 17.17
-8 4 -13 26.48 14.51
-8 4 -14 51.92 18.38
-8 4 -14 68.34 15.75
-8 4 -15 58.65 18.74
-8 4 -15 39.37 15.26
-8 4 -16 15.9 19.26
-8 4 -16 26.02 15.98
-8 4 -17 57.6 20
-8 4 -17 63.68 17.4
-8 4 -18 -5.17 19.92
-8 4 -18 31.29 17.05
-8 4 -19 39.08 22.22
-8 4 -19 89.8 18.97
-8 4 -20 74.52 23.46
-8 4 -20 126.43 20.04
-8 4 -21 -4.7 22.66
-8 4 -21 33.2 18.51
-8 4 -22 9.78 23.25
-8 4 -22 12.12 18.83
-8 4 -23 -1.26 23.98
-8 4 -23 31.15 19.81
-8 4 -24 26.14 24.96
-8 4 -24 10.67 20.16
-8 4 -25 2.68 25.41
-8 4 -25 16.51 20.68
-8 4 -26 15.31 27.57
-8 4 -26 -1.14 21.98
-8 -5 -26 50.71 22.73
-5 8 -26 41.93 29.39
-8 -5 -25 -11.58 21.98
-5 8 -25 -8.2 27.97
-8 -5 -24 -22.71 20.97
-5 8 -24 11.95 26.78
-5 8 -23 68.22 26.78
-8 -5 -23 69.83 21.92
-8 -5 -23 77.38 24.91
-5 8 -22 41.31 24.8
-8 -5 -22 62.42 20.46
-5 8 -22 75.09 20.32
-8 -5 -22 11.67 22.18
-5 8 -21 32.27 23.61
-8 -5 -21 -24.99 19.4
-5 8 -21 -9.32 18.63
-8 -5 -21 33.72 22.24
-5 8 -20 -12.65 22.31
-8 -5 -20 7.06 18.36
-5 8 -20 42.29 18.35
-8 -5 -20 39.92 21.69
-8 -5 -19 98.1 22.89
-5 8 -19 99.84 23.66
-5 8 -19 104.97 19.26
5 8 19 65.19 17.43
-8 -5 -19 88.51 19.48
-8 -5 -18 28.11 18.06
-5 8 -18 75.01 21.95
-5 8 -18 35.24 16.66
5 8 18 25.24 15.81
-8 -5 -18 70.07 21.28
-8 -5 -17 30.6 17.13
-5 8 -17 74.66 21.6
-5 8 -17 54.91 16.63
5 8 17 24.81 15.4
-8 -5 -17 39.37 20.06
-8 -5 -16 19 17.01
-5 8 -16 28.5 19.7
-5 8 -16 19.81 16.34
5 8 16 46.14 15.11
-8 -5 -16 31.98 18.87
-8 -5 -15 66.21 17.19
-5 8 -15 52.52 19.58
-5 8 -15 87.1 16.16
5 8 15 78.32 15.65
-8 -5 -15 87.22 19.29
-8 -5 -14 198.53 19.93
-5 8 -14 164.84 22.21
5 8 14 190.97 17.61
-8 -5 -14 141.8 20.39
-5 8 -14 205.5 19
-8 -5 -13 76.14 16.56
-5 8 -13 62.4 18.73
5 -8 -13 111.05 14.36
5 8 13 92.21 14.98
-8 -5 -13 56.06 17.65
-5 8 -13 80.13 15.53
-8 -5 -12 19.36 14.74
-5 8 -12 -17.31 18.63
5 -8 -12 -25.74 14.87
5 8 12 23.84 14.18
-8 -5 -12 8.24 15.42
-5 8 -12 16.96 13.9
-8 -5 -11 108.22 16.79
-5 8 -11 86.93 15.11
-8 -5 -11 106.74 15.49
5 -8 -11 88.7 15.71
-8 -5 -10 131.32 16.42
-5 8 -10 134.78 15.3
-8 -5 -10 111.92 15.68
5 -8 -10 159.75 16.55
-8 -5 -9 68.09 14.51
5 -8 -9 52.48 14.06
-5 8 -9 71.21 13.65
-8 -5 -9 37.6 13.56
5 -8 -8 29.16 13.5
-5 8 -8 24.01 12.06
-8 -5 -8 36.42 12.73
-8 -5 -8 56.4 13.03
5 -8 -7 168.92 16.1
-8 -5 -7 137.15 14.28
-5 8 -7 144.23 14.67
-8 -5 -7 165.07 14.76
5 -8 -6 267.46 18.42
-8 -5 -6 252.98 16.84
-8 -5 -6 220.94 15.55
-5 -8 6 246.5 15.13
-8 -5 -5 119.9 13.24
-5 -8 5 142.43 12.27
5 -8 -5 127.32 14.95
-8 -5 -4 130.59 12.69
5 -8 -4 127.6 17.18
-5 -8 4 144.24 12.56
5 -8 -4 131.74 15.44
5 -8 -3 79.4 15.92
-8 5 3 85.28 10.24
5 -8 -3 97.04 14.4
-5 -8 3 114.61 11.92
5 -8 -2 489.88 18.43
-5 -8 2 433.1 15.26
-8 5 2 431.58 13.3
5 -8 -2 448.83 20.4
5 -8 -1 139.48 14.88
-5 -8 1 116.75 12.08
-8 5 1 127.22 10.66
5 -8 -1 134.99 16.48
-5 -8 1 144.33 10.46
5 -8 0 27.82 13.53
-8 5 0 11.57 9.07
-5 -8 0 -3.97 11.12
-5 8 0 -11.97 4.64
5 -8 0 -9.78 14.7
-5 -8 0 5.42 9.49
-5 -8 -1 106.61 13.21
-8 5 -1 155.13 11.25
8 -5 -1 102.37 13.67
5 -8 1 127.54 14.87
-5 8 1 71.39 7.86
-8 -5 1 117.85 10.33
8 5 1 103.6 8.4
5 -8 2 375.01 22.12
8 -5 -2 377.4 20.19
8 -5 -2 337.81 21.11
-8 5 -2 392.43 19.01
8 5 2 346.34 16.92
-5 8 2 369.22 17.42
-8 -5 2 418.32 17.01
-5 -8 -2 379.4 20.68
5 -8 3 59.43 14.63
8 -5 -3 73.74 12.33
-5 8 3 58.51 9.94
-8 5 -3 91.96 10.99
-5 -8 -3 69.11 12.97
8 5 3 65.28 8.61
8 -5 -3 59.44 14.19
-8 5 -4 169.8 13.56
-5 -8 -4 152.07 15.22
-5 8 4 167.23 12.8
5 -8 4 109.37 16.37
8 -5 -4 141.42 13.66
8 -5 -4 137.19 15.67
-8 5 -5 116.31 12.53
5 -8 5 135.26 16.64
8 -5 -5 138.23 13.32
-5 8 5 122.18 12.8
-5 -8 -5 134.15 14.95
8 -5 -5 121.25 15.71
-5 8 6 238.1 16.27
-8 5 -6 238.76 16.36
8 -5 -6 245.29 16.02
-5 -8 -6 273.31 18.55
-5 -8 -7 193.23 16.78
8 -5 -7 158.73 14.14
-8 5 -7 171.62 15.16
-8 5 -8 72.98 12.58
-8 5 -9 41.52 12.42
-8 5 -10 109.46 14.82
-8 5 -10 104.14 17.4
-8 5 -11 80.19 14.8
-8 5 -11 91.9 17.46
8 5 12 20.85 11.93
-8 5 -12 -0.79 16.43
-8 5 -12 11.03 13.67
-8 5 -13 46.8 17.3
-8 5 -13 40.82 15.1
-8 5 -14 170.21 21.29
-8 5 -14 146.28 17.81
-8 5 -15 99.82 20.55
-8 5 -15 88.06 16.76
-8 5 -16 18.35 19.01
-8 5 -16 18.82 15.66
-8 5 -17 42.41 20.82
-8 5 -17 63.23 17.04
-8 5 -18 23.11 20.66
-8 5 -18 26.21 16.84
-8 5 -19 71.71 22.37
-8 5 -19 86.76 19.16
-8 5 -20 -6.96 22.81
-8 5 -20 39.94 18.39
-8 5 -21 21.58 23.22
-8 5 -21 35.01 19.43
-8 5 -22 42.29 23.69
-8 5 -22 30.7 19.45
-8 5 -23 52.85 25.76
-8 5 -23 87.19 21.41
-8 5 -24 29.21 26.39
-8 5 -24 16.12 20.75
-8 5 -25 8.2 26.43
-8 5 -25 -33 20.99
-8 5 -26 6.76 21.26
-6 8 -25 4.17 27.47
-6 8 -24 50.16 27.45
-6 8 -23 -14.5 25.91
-6 8 -23 31.37 20.99
-6 8 -22 60.11 26.2
-8 -6 -22 27.3 20.38
-6 8 -22 76.98 20.6
-6 8 -21 83.01 25.24
-8 -6 -21 52.06 20.07
-6 8 -21 56.18 19.67
-6 8 -20 49.65 23.38
-8 -6 -20 29.96 19.35
-6 8 -20 0.94 17.82
-6 8 -19 34.15 23.3
-8 -6 -19 16.01 19.11
-6 8 -19 51.42 17.85
-8 -6 -18 -26.54 20.43
6 8 18 9.07 15.04
-6 8 -18 -23.28 21.14
-8 -6 -18 6.76 17.89
-6 8 -18 13.12 16.4
-8 -6 -17 64.62 20.09
6 8 17 33.41 15.09
-6 8 -17 31.59 21.28
-8 -6 -17 50.24 17.69
-6 8 -17 23.86 16.56
-8 -6 -16 54.98 19.43
6 8 16 48.11 15.35
-6 8 -16 28.52 20.34
-8 -6 -16 25 16.64
-6 8 -16 5.78 15.9
-8 -6 -15 53.7 19.02
6 8 15 43.5 14.83
-6 8 -15 12.58 19.42
-8 -6 -15 25.69 16.62
-6 8 -15 46.67 15.99
-6 8 -14 42.76 19.47
-8 -6 -14 51.29 18.09
-6 8 -14 38.3 15.92
6 8 14 71.09 15.11
-8 -6 -14 36.89 16.75
-6 8 -13 34.6 18.77
-8 -6 -13 55.45 17.57
-6 8 -13 64.27 15.63
6 8 13 104.26 15.69
-8 -6 -13 54.81 16.84
-8 -6 -12 94.78 16.53
6 8 12 113.65 16.21
6 -8 -12 77.5 15.36
-6 8 -12 73.14 15.59
-6 8 -12 62.56 18.38
-8 -6 -12 81.31 16.73
-8 -6 -11 322.9 21.68
-6 8 -11 279.05 20.13
-8 -6 -11 282.19 21.27
6 -8 -11 287.43 20.56
6 -8 -10 141.49 16.59
-6 8 -10 135.7 15.95
-8 -6 -10 148.34 17.16
6 -8 -9 202.97 17.45
-8 -6 -9 179.21 17.41
-6 8 -9 145.35 16.14
-6 8 -8 326.44 20.25
-8 -6 -8 332.68 20.84
6 -8 -8 341.31 20.97
-6 8 -7 317.1 19.72
-8 -6 -7 336.89 20.13
6 -8 -7 312.92 20.63
-6 8 -6 153.87 15.02
6 -8 -6 162.87 16.58
6 -8 -5 50.86 15.92
6 -8 -5 59.53 14.13
6 -8 -4 17.85 15.1
6 -8 -4 26.3 13.23
-6 -8 4 11.08 10.02
6 -8 -3 529.5 26.16
-6 -8 3 538.98 23.78
6 -8 -3 518.02 28.19
-6 -8 2 157.95 13.11
6 -8 -2 142.01 15.74
6 -8 -2 111.84 17.08
-6 -8 1 176.38 13.67
6 -8 -1 151.49 18.12
6 -8 -1 146.79 16.14
6 -8 0 103.43 15.33
-6 8 0 -0.24 3.19
-8 -6 0 94.48 10.51
-6 -8 0 85.73 12
8 -6 0 81.56 13.86
6 8 0 78.81 9.25
6 -8 0 58.61 15.95
-6 -8 -1 143.65 13.26
-8 -6 1 150.11 10.7
8 -6 -1 155.38 14.46
6 -8 1 158.1 15.7
8 -6 -1 115.35 15.37
-8 6 -2 166.13 12.28
8 -6 -2 141.07 15.98
-6 -8 -2 183.93 14.04
8 -6 -2 173.59 14.55
6 -8 2 149.37 16.05
8 6 2 166.34 9.82
-6 -8 -3 456.42 22.16
8 -6 -3 490.3 24.36
-8 6 -3 491.94 21.11
6 -8 3 510.87 24.69
8 -6 -3 495.54 22.11
8 -6 -4 10.99 12.16
-6 -8 -4 31.14 12.61
8 -6 -4 2.81 14.26
-8 6 -4 9.55 10.21
6 -8 4 -4.7 14.43
8 -6 -5 86.47 15.56
-8 6 -5 74.14 12.08
8 -6 -5 87.98 13.17
-6 -8 -5 89.13 14.04
8 -6 -6 161.87 17.47
-8 6 -6 160.27 14.31
-6 -8 -6 145.28 15.93
8 -6 -6 144.97 14.58
8 -6 -7 291.91 18.46
-8 6 -7 279.62 18.15
-8 6 -8 298.43 19.1
-8 6 -9 186.3 17.17
-8 6 -10 138.32 15.94
-8 6 -11 330.92 21.35
-8 6 -11 291.3 23.29
-8 6 -12 110.01 16.6
-8 6 -12 116.48 19.03
8 6 13 75.36 14.48
-8 6 -13 90.87 19.11
-8 6 -13 75.97 16
-8 6 -14 29.21 18.66
-8 6 -14 81.22 16.52
-8 6 -15 25.71 18.51
-8 6 -15 48.77 15.86
-8 6 -16 58.94 20.77
-8 6 -16 29.93 16.48
-8 6 -17 66.75 20.86
-8 6 -17 33.79 16.84
-8 6 -18 8.68 20.88
-8 6 -18 -20.81 16.97
-8 6 -19 66.38 22.53
-8 6 -19 3.78 17.63
-8 6 -20 27.07 22.64
-8 6 -20 36.67 18.62
-8 6 -21 36.96 24.17
-8 6 -21 67.44 20.16
-8 6 -22 90.09 25.68
-8 6 -22 90.97 21.23
-8 6 -23 28.85 25.16
-8 6 -23 -33.12 20.41
-8 6 -24 37.89 27.36
-8 6 -24 42.31 21.25
-8 6 -25 6.94 27.05
-8 6 -25 23.26 21.27
-8 6 -26 -11.32 21.87
-7 8 -25 31.11 28.07
-7 8 -24 24.85 27.13
-7 8 -24 70.35 22.57
-7 8 -23 14.82 26.43
-7 8 -23 3.25 20.24
-7 8 -22 -5.21 25.04
-7 8 -22 -1.05 19.62
-7 8 -21 63.62 24.68
-7 8 -21 12.05 18.96
-7 8 -20 19.41 23.28
-7 8 -20 24.31 18.25
-7 8 -19 38.63 23.38
-7 8 -19 16.85 17.77
-7 8 -18 59.04 18.08
-7 8 -18 20.5 22.07
7 8 17 40.6 15.37
-7 8 -17 33.54 16.76
-7 8 -17 33.58 21.24
7 8 16 67.64 15.95
-7 8 -16 118.54 18.78
-7 8 -16 66.26 21.97
7 8 15 18.15 14.1
-7 8 -15 8.26 15.5
-7 8 -15 12.98 19.63
7 8 14 41.81 15.11
-7 8 -14 46.06 15.99
-7 8 -14 16.34 19.53
-7 8 -13 98.35 20.39
-7 8 -13 107.34 16.8
7 8 13 128.82 16.79
-7 8 -12 51.52 15.15
-7 8 -12 26.68 18.97
-7 8 -11 29.17 14.48
-7 8 -10 170.15 17.62
7 -8 -10 239.15 18.91
-7 8 -9 186.23 17.18
7 -8 -9 177.69 17.91
-7 8 -8 69.96 13.85
7 -8 -8 82.02 15.51
-7 8 -7 260.57 18.65
7 -8 -7 306.96 20.09
-7 8 -6 86.82 13.78
7 -8 -6 79.12 14.81
7 -8 -6 119.07 17.71
-7 8 -5 -5.5 11.23
7 -8 -5 -5.87 13.5
7 -8 -5 4.05 15.75
7 -8 -4 9.99 14.96
7 -8 -4 13.37 13.91
7 -8 -3 55.62 16.36
7 -8 -3 44.64 13.83
-8 -7 -2 42.81 11.9
-7 -8 2 41.4 10.7
7 -8 -2 26.99 13.83
7 -8 -2 31.02 15.84
8 -7 1 395.97 23.37
7 -8 -1 421.71 23.53
7 -8 -1 423.65 24.54
-8 -7 -1 428.55 20.82
-7 -8 1 408.67 20.62
7 -8 0 39.24 14.55
8 -7 0 48.33 14.12
-7 -8 0 38.25 11.52
-8 -7 0 33.78 10.92
7 -8 1 399.68 23.73
8 -7 -1 417.86 23.1
-7 -8 -1 406.23 21.15
-8 -7 1 430.12 19.81
8 -7 -1 375.3 23.87
-7 -8 -2 42.16 12.35
8 -7 -2 29.18 13.87
7 -8 2 35.87 14.8
8 -7 -2 18.85 14.71
7 -8 3 57.19 15.61
-7 -8 -3 47.08 12.88
8 -7 -3 53.75 13.68
-8 7 -3 47.58 11.27
8 -7 -3 54.51 15.36
8 -7 -4 17.39 12.99
-7 -8 -4 15.69 12.56
-8 7 -4 12.39 11.18
8 -7 -4 -3.11 14.56
8 -7 -5 -6.96 13.33
-7 -8 -5 10.18 13.1
-8 7 -5 1.07 11.1
8 -7 -5 19.82 15.46
-8 7 -6 99.5 13.59
8 -7 -6 101.84 16.89
8 -7 -6 100.16 15.1
8 -7 -7 213.66 18.1
-8 7 -7 281.56 18.19
-8 7 -8 73.19 14.1
8 -7 -8 92.71 14.75
-8 7 -9 197.34 17.6
-8 7 -10 168.99 17.14
-8 7 -11 46.25 14.89
-8 7 -12 40.59 14.94
-8 7 -12 57.23 18.43
-8 7 -13 111.67 20.1
-8 7 -13 103.22 17.3
8 7 13 105.03 15.48
-8 7 -14 31.22 19.18
-8 7 -14 29.65 16.47
8 7 14 46.71 14.3
-8 7 -15 19.12 15.96
-8 7 -15 28.91 20.06
-8 7 -16 28.21 16.7
-8 7 -16 108.33 22.17
-8 7 -17 22.12 16.44
-8 7 -17 22.65 20.55
-8 7 -18 33.94 17.86
-8 7 -18 5.61 21.46
-8 7 -19 44.87 18.36
-8 7 -19 19.77 22.56
-8 7 -20 24.72 18.8
-8 7 -20 36.02 23.96
-8 7 -21 38.41 19.76
-8 7 -21 3.76 24.06
-8 7 -22 14.99 20.37
-8 7 -22 -1.3 25.11
-8 7 -23 -2.18 20.28
-8 7 -23 17.4 25.81
-8 7 -24 90.81 22.74
-8 7 -24 104.66 28.56
-8 7 -25 -14.57 21.83
-8 7 -25 52.33 28.58
8 -8 0 33.13 14.73
-8 -8 0 19.24 11.12
-8 -8 -1 206.91 15.69
8 -8 1 234.65 19.04
8 -8 -1 224.55 18.9
8 -8 -1 150.04 18.64
-8 -8 -2 20.89 12.31
8 -8 -2 -0.67 15.38
8 -8 -2 14.74 14.12
8 -8 2 30.2 15.22
8 -8 -3 -5.46 15.45
8 -8 -3 4.47 13.9
-8 -8 -3 1.47 12.22
8 -8 -4 95.87 17.51
-8 -8 -4 94.14 14.76
-8 8 -4 100.44 13.57
8 -8 -4 107.3 15.49
8 -8 -5 275.31 19.56
-8 8 -5 257.08 17.86
8 -8 -5 219.68 20.87
8 -8 -6 65.75 17.65
-8 8 -6 40.71 12.91
8 -8 -6 35.91 14.72
-8 8 -7 337.76 21.01
8 -8 -7 313.93 21.4
8 -8 -7 363.56 24.45
8 -8 -8 865.17 37.22
-8 8 -8 821.88 37.16
-8 8 -9 42.63 14.33
-8 8 -10 601.71 30.34
-8 8 -11 143.61 17.23
-8 8 -12 137.16 17.48
-8 8 -12 110.57 20.89
8 8 13 80.42 15.83
-8 8 -13 75.09 20.87
-8 8 -13 67.06 16.63
-8 8 -14 8.24 15.42
8 8 14 26.89 14.79
-8 8 -14 16.86 19.2
-8 8 -15 61.97 17.28
8 8 15 55.5 15.17
-8 8 -15 62.79 21.32
-8 8 -16 32.45 21.36
-8 8 -16 41.83 16.71
-8 8 -17 77.95 22.56
-8 8 -17 40.08 17.93
-8 8 -18 36.09 22.94
-8 8 -18 46.04 18.34
-8 8 -19 13.19 23.74
-8 8 -19 -0.97 17.9
-8 8 -20 6.21 23.12
-8 8 -20 38.26 19.36
-8 8 -21 -3.83 24.2
-8 8 -21 1.04 19.45
-8 8 -22 19.86 26.33
-8 8 -22 14.13 20.68
-8 8 -23 -8.23 26.66
-8 8 -23 39.07 21.63
-8 8 -24 43.5 28.59
-8 8 -24 30.6 21.71
-8 8 -25 -8.01 22.34
-9 0 0 6.92 7.71
0 -9 0 11.37 13.31
0 -9 0 6.75 12.42
9 0 0 16.62 6.12
-9 0 -1 9.9 8.32
-9 0 1 6.74 6.96
0 -9 1 2.43 12.9
0 -9 -1 22.62 13.26
0 -9 1 -19.67 13.1
0 -9 -1 -5.87 12.48
9 0 1 6.31 6.31
-9 0 -2 2.34 8.77
-9 0 2 -0.99 6.25
0 -9 -2 17.94 13.25
0 -9 2 -5.74 12.19
0 -9 -2 5.45 12.62
9 0 2 14.01 6.96
0 -9 -3 626.28 29.08
9 0 3 640.17 25.35
-9 0 -3 609.69 26.1
-9 0 -3 632.21 26.82
0 -9 3 645.53 28.84
-9 0 -4 133.22 12.27
0 -9 -4 109.48 14.85
0 -9 4 93.25 14.33
9 0 -4 106.71 10.1
-9 0 -4 109.17 11.64
0 -9 -5 211.67 17.37
0 -9 5 206.34 16.63
-9 0 -5 216.21 15.19
-9 0 -5 221.53 14.69
0 -9 -6 73.95 15.19
-9 0 -6 104.04 12.98
0 -9 6 110.52 14.48
-9 0 -6 88.92 12.32
0 9 7 16.9 12.49
0 -9 -7 41.94 14.23
-9 0 -7 28.4 11.43
0 -9 7 27.11 13.6
-9 0 -7 33.49 11.94
0 9 8 8.82 12.41
0 -9 8 6.43 13.05
-9 0 -8 6.61 11.51
-9 0 -8 22.44 12.18
0 -9 -8 15.28 13.73
0 9 9 -5.95 12.87
-9 0 -9 4.67 12.26
-9 0 -9 3.88 12.13
0 -9 -9 0.61 14.5
0 9 -10 -10.92 11.55
-9 0 -10 25.28 12.94
0 9 10 29.13 13.28
0 -9 -10 6.96 14.56
-9 0 -10 10.12 13.69
0 9 -11 524.06 24.93
0 -9 -11 494.42 27.51
-9 0 -11 497.27 26.57
-9 0 -11 475.96 26.9
0 9 11 510.73 26.54
-9 0 -12 12.99 14.26
0 9 12 30.73 14.72
-9 0 -12 27.19 15.79
0 -9 -12 14.16 15.39
0 9 -12 8.93 16.19
0 9 -12 29.6 12.63
-9 0 -13 204.95 19.21
0 9 13 263.72 19.47
-9 0 -13 192.28 20.31
0 -9 -13 209.25 20.14
0 9 -13 184.38 21.09
0 9 -13 226.3 17.02
-9 0 -14 7.56 15.09
0 9 14 4.18 15.25
-9 0 -14 30.03 17.4
0 -9 -14 13.07 16.79
0 9 -14 14.63 17.15
0 9 -14 42.7 13.02
0 9 15 -28.88 15.95
0 9 -15 10.49 17.55
0 -9 -15 6.78 17.5
-9 0 -15 20.98 17.78
-9 0 -15 -4.76 15.24
0 9 16 18.84 17.09
0 -9 -16 40.49 18.07
-9 0 -16 53.9 16.74
-9 0 -16 15.95 17.72
0 9 -16 42.08 19.23
-9 0 -17 0.94 18.72
0 9 -17 8.03 19.75
0 -9 -17 8.84 18.15
-9 0 -17 -2.61 16.25
-9 0 -18 35.38 20.36
0 9 -18 34.63 20.43
0 -9 -18 36.47 19.24
-9 0 -18 27.37 17.65
-9 0 -19 45.39 20.83
0 9 -19 -3.92 21.36
0 -9 -19 52.22 19.05
-9 0 -19 12.43 17.59
-9 0 -20 27.19 21.66
0 9 -20 15.52 22.32
0 -9 -20 44.13 17.82
-9 0 -20 39.42 18.66
-9 0 -21 37.52 22.38
0 -9 -21 -19.98 14.85
-9 0 -21 45.7 19.21
-9 0 -22 -3.54 22.47
-9 0 -22 2.09 18.73
-9 0 -23 33.04 23.68
-9 0 -23 24.63 20.48
-9 0 -24 -1.27 23.92
-9 0 -24 14.24 19.9
-9 0 -25 3.94 24.91
-9 0 -25 33.7 21.3
-9 0 -26 -46.01 26.19
-9 0 -26 12.6 21.56
-9 -1 -26 21.66 26.13
-9 -1 -26 41.21 22.02
-9 -1 -25 -3.93 24.71
-9 -1 -25 1.12 20.69
-9 -1 -24 3.8 24.47
-9 -1 -24 7.7 20.43
-9 -1 -23 -7.51 19.66
-9 -1 -23 15.89 23.53
-1 9 -23 4.75 25.97
-9 -1 -22 24.98 19.24
-9 -1 -22 -7.04 22.41
-1 9 -22 28.7 24.48
-9 -1 -21 47.55 19.48
-1 9 -21 38.81 24.19
-9 -1 -21 23.61 22.16
-9 -1 -20 6.87 17.68
-1 9 -20 -21.16 22.01
-9 -1 -20 6.46 20.81
1 -9 -20 -17.33 12.1
-1 9 -19 8.06 21.03
-9 -1 -19 29.97 20.37
-9 -1 -19 31.37 17.64
-9 -1 -18 16.71 19.5
-1 9 -18 10.66 20.01
-9 -1 -18 -12.87 17.19
1 -9 -18 -15.46 17.3
1 9 17 23.51 16.74
1 -9 -17 16.55 17.2
-9 -1 -17 52.94 19.5
-1 9 -17 47.43 20.16
-9 -1 -17 33.75 17.24
-9 -1 -16 42.64 16.8
1 9 16 19.18 16.05
1 -9 -16 33.53 18.35
-1 9 -16 23.12 14.65
-9 -1 -16 49.05 18.7
-1 9 -16 52.02 19.98
-9 -1 -15 54.23 16.62
1 9 15 5.79 15.23
-1 9 -15 48.26 14.26
1 -9 -15 36.06 17.55
-9 -1 -15 24.04 17.26
-1 9 -15 31.33 18.62
-9 -1 -14 82.86 17.13
1 9 14 105.96 16.74
-1 9 -14 101.97 14.96
1 -9 -14 84.13 17.93
-9 -1 -14 70.23 18.42
-1 9 -14 73.43 18.36
-9 -1 -13 170.78 18.29
1 9 13 208.05 18.27
-1 9 -13 181.01 16.85
1 -9 -13 161.26 18.93
-9 -1 -13 177 19.38
-1 9 -13 126.31 19.37
-9 -1 -12 35.82 15
1 9 12 30.44 14.48
-1 9 -12 38.25 13.77
1 -9 -12 66.46 16.3
-9 -1 -12 56.8 15.61
-1 9 -12 57.85 17.67
1 9 11 221.72 18.36
-1 9 -11 224.65 16.98
1 -9 -11 241.52 20.03
-9 -1 -11 222.89 18.97
-9 -1 -11 203.17 18.27
1 9 10 142.49 15.86
-1 9 -10 156.3 14.93
1 -9 -10 136.83 17.11
-9 -1 -10 131.41 16.19
-9 -1 -10 129.23 15.64
1 9 9 100.23 14.77
-1 9 -9 114.33 13.42
-9 -1 -9 130.79 14.85
1 -9 -9 104.2 15.86
-9 -1 -9 110.44 14.3
1 -9 -8 18.51 13.74
-9 -1 -8 12.43 11.91
1 9 8 25.42 12.82
-9 -1 -8 21.69 12.36
-1 -9 8 34.18 13.33
-9 -1 -7 19.32 11.21
-1 -9 7 36.24 13.31
1 -9 -7 40.32 14.52
-9 -1 -7 51.53 11.96
-9 -1 -6 127.09 13.34
-9 -1 -6 110.41 12.69
-1 -9 6 111.51 14.49
1 -9 -6 114.42 15
-1 -9 5 593.73 27.18
-9 -1 -5 568.83 25.56
-9 -1 -5 620.5 26.5
1 -9 -5 577.79 28.26
1 -9 -4 139.52 15.86
-1 -9 4 146.46 14.64
-9 -1 -4 122.47 11.89
-9 -1 -4 131.26 11.99
-9 -1 -3 622.08 25.12
-1 -9 3 584.96 26.82
1 -9 -3 559.62 27.83
9 -1 3 593.32 23.64
-9 1 3 562.87 22.42
-9 -1 -3 554.67 23.91
-9 -1 -2 87.39 10.48
1 -9 -2 74.28 14.69
-1 -9 2 86.93 13.76
-9 -1 -2 90.22 9.29
-9 1 2 86.43 8.28
9 -1 2 88.15 8.62
1 -9 -2 89.27 15.01
1 -9 -1 77.07 14.12
-1 -9 1 67.82 13.51
-9 -1 -1 67.02 8.42
-9 1 1 73.02 8.25
-9 -1 -1 75.58 9.37
1 -9 -1 83.47 14.92
-1 -9 1 72.74 13.59
1 -9 0 30.18 13.6
-1 -9 0 45.56 13.4
-9 1 0 37.25 9.21
-9 1 0 36.32 8.26
-9 -1 0 34.02 8.02
1 -9 0 27.86 13.92
-1 -9 0 17.05 12.92
-9 -1 1 77.71 8.09
-1 -9 -1 91.04 13.82
1 -9 1 99.07 14.4
-9 1 -1 86.03 9.7
9 1 1 69.01 7.58
-1 -9 -1 89.71 14.03
1 -9 1 96.35 15.18
-9 -1 2 72.22 7.6
1 -9 2 109.25 14.81
-9 1 -2 99.49 10.59
-1 -9 -2 88.15 13.83
9 1 2 95.68 8.48
-9 1 -2 93.66 10.83
1 -9 3 607.4 28.81
-1 -9 -3 638.63 28.95
9 1 3 649.09 25.32
-9 1 -3 601.45 26.52
1 -9 4 130.24 14.81
-9 1 -4 131.42 12.27
-1 -9 -4 140.45 15.31
9 1 4 116.02 10.03
9 -1 -4 116.67 11.35
1 9 -4 129.57 12.16
1 -9 5 513.84 25.47
-9 1 -5 560.62 24.04
-1 -9 -5 509.49 26.09
-9 1 -5 511 23.77
9 -1 -5 469.64 22.33
-1 9 6 145.11 14.32
-1 -9 -6 110.73 15.48
-9 1 -6 96.92 12.63
1 -9 6 100.03 14.84
-9 1 -6 111.39 13.07
-1 9 7 40.69 12.87
-1 -9 -7 36.69 14.38
-9 1 -7 20.83 11.45
1 -9 7 40.67 13.77
-9 1 -7 34.3 11.97
-9 1 -8 -0.55 11.75
-1 -9 -8 -7.17 14.33
-1 9 8 19.29 12.51
-9 1 -8 25.43 12.45
1 -9 8 28.19 13.44
-9 1 -9 122.81 14.52
-1 -9 -9 128.79 16.93
-1 9 9 104.19 14.52
-9 1 -9 111.3 15.06
-1 9 10 129.25 15.55
-1 -9 -10 133.89 16.87
-9 1 -10 125.32 15.77
-9 1 -10 121.59 15.84
1 9 -10 124.72 12.48
-1 9 11 214.12 18.01
-1 -9 -11 218.68 20
1 9 -11 212.17 15.4
-9 1 -11 203.69 18.33
-9 1 -11 193.02 18.68
1 9 -11 208.41 18.35
1 9 -12 51.93 12.52
-1 9 12 26.6 14.51
-1 -9 -12 35.02 16.15
-9 1 -12 66.68 15.3
1 9 -12 45.88 16.52
-9 1 -12 44.27 15.88
-9 1 -13 164.77 18.01
-1 9 13 148.34 17.59
-9 1 -13 180.17 19.61
-1 -9 -13 146.92 19.19
1 9 -13 113.06 18.18
1 9 -13 143.61 14.39
-1 9 14 84.52 16.81
-1 -9 -14 87.68 17.85
1 9 -14 109.78 19
-9 1 -14 83.47 16.41
-9 1 -14 59.76 17.79
-1 -9 -15 29.79 17.43
1 9 -15 69.23 18.36
-9 1 -15 55.3 16.38
-9 1 -15 28.09 17.87
-9 1 -16 45.39 16.74
-9 1 -16 55.82 19.73
1 9 -16 83.47 19.24
-1 -9 -16 42.74 18.12
-9 1 -17 28.46 17.18
1 9 -17 28.46 19.3
-9 1 -17 26.57 19.28
-1 -9 -17 0.82 18.1
-9 1 -18 18.84 16.66
-9 1 -18 27.9 20.54
-1 -9 -18 18.65 19.06
-9 1 -19 45.8 17.66
-9 1 -19 40.74 21.08
-1 -9 -19 45.42 18.8
-9 1 -20 -5.85 17.67
-9 1 -20 5.45 20.76
-1 -9 -20 29.72 19.28
-9 1 -21 48.9 19.86
-9 1 -21 14.8 21.91
-1 -9 -21 40.87 20.64
-9 1 -22 8.42 19.49
-9 1 -22 20.29 22.93
-1 -9 -22 68.67 20.62
-9 1 -23 47.35 20.89
-9 1 -23 1.24 24.05
-9 1 -24 32.03 21.18
-9 1 -24 7.67 24.56
-9 1 -25 49.43 21.54
-9 1 -25 15.82 24.61
-9 1 -26 -19.43 21.45
-9 1 -26 -36.7 25.87
-9 -2 -26 10.52 21.96
-9 -2 -26 25.76 26.62
-9 -2 -25 21.62 21.32
-2 9 -25 43.98 27.53
-9 -2 -25 34.32 25.64
-9 -2 -24 -9.94 20.13
-2 9 -24 13.85 26.82
-9 -2 -24 21.62 24.9
-9 -2 -23 8.59 19.85
-2 9 -23 4.88 25.63
-9 -2 -23 -6.1 23.95
-2 9 -22 96.91 26.61
-9 -2 -22 55.19 23.76
-9 -2 -22 69.2 20.4
-2 9 -21 55.86 24.13
-9 -2 -21 67.57 23.07
-9 -2 -21 27.47 18.91
-2 9 -20 38.97 22.65
-9 -2 -20 29.02 21.13
-9 -2 -20 37.44 18.6
-2 9 -19 27.17 21.58
-9 -2 -19 11.41 17.46
-9 -2 -19 35.88 21.08
-9 -2 -18 80.74 18.82
2 9 18 59.37 17.46
-2 9 -18 57.1 21.72
-9 -2 -18 60.41 20.79
-9 -2 -17 81.16 18.14
2 9 17 89.69 17.96
2 -9 -17 54.46 14.29
-2 9 -17 85.26 16.59
-9 -2 -17 60.3 19.88
-2 9 -17 75.27 21.15
-9 -2 -16 27.21 16.16
2 9 16 23.28 15.49
-2 9 -16 20.16 19.4
-2 9 -16 -17.15 14.99
2 -9 -16 3.78 15.53
-9 -2 -16 -13.2 18.29
-9 -2 -15 60.57 18.52
-2 9 -15 59.7 20.08
2 9 15 65.17 16.35
-9 -2 -15 87.31 17.06
-2 9 -15 60.47 15.28
2 -9 -15 65.88 17.45
-9 -2 -14 173.96 19.9
-2 9 -14 169.14 21.31
2 9 14 132.51 17.83
-9 -2 -14 178.12 19.34
-2 9 -14 172.76 17.11
2 -9 -14 139.94 19.64
-9 -2 -13 53.53 16.81
-2 9 -13 83.31 18.42
2 9 13 83.92 15.47
-9 -2 -13 66.37 16.21
-2 9 -13 58.92 14.58
2 -9 -13 78.28 17.06
-9 -2 -12 46.66 15.68
-2 9 -12 40.44 17.29
2 9 12 42.14 14.67
-2 9 -12 73.01 14.8
2 -9 -12 40.19 15.71
-9 -2 -12 23.48 14.62
-9 -2 -11 46.52 15.12
-2 9 -11 36.4 13.15
2 9 11 44.05 14.07
2 -9 -11 31.88 15.18
-9 -2 -11 16.36 14.27
-2 9 -10 996.56 41.71
2 -9 -10 1004.43 42.97
-9 -2 -10 1023.17 42.39
-9 -2 -10 1047.88 42.83
2 9 10 1017.96 42.43
2 -9 -9 20.74 14.55
2 9 9 41.67 13.79
-9 -2 -9 25.13 13.2
-9 -2 -9 26.13 12.95
-2 9 -9 27.18 11.95
2 -9 -8 30.41 14.03
-9 -2 -8 41.62 12.36
-9 -2 -8 38.55 12.39
-2 -9 8 10.6 12.39
2 -9 -7 77.02 14.74
-9 -2 -7 99.82 12.94
-9 -2 -7 61.37 12.17
-2 -9 7 54.95 12.92
-9 -2 -6 906.97 36.91
-9 -2 -6 888.58 36.08
2 -9 -6 858.3 38.12
-2 -9 6 937.43 37.24
-2 -9 5 66.84 12.77
-9 -2 -5 51.06 10.87
-9 -2 -5 71.21 11.87
2 -9 -5 76 14.43
2 -9 -4 21.59 14.06
-2 -9 4 31.22 12.11
-9 -2 -4 48.75 10.43
-9 -2 -4 34.02 9.72
-9 2 3 32.79 7.15
-2 -9 3 58.79 12.62
2 -9 -3 40.08 13.9
-9 -2 -3 33.69 10
2 -9 -3 36.07 14.98
-9 -2 -3 31.29 8.69
-9 -2 -2 1061.76 41.12
-9 2 2 1091.8 41.23
-2 -9 2 1174.78 44.46
2 -9 -2 1162.28 45.46
-9 -2 -2 1162.57 42.59
2 -9 -2 1192.89 46.19
-9 2 1 599.9 23.39
2 -9 -1 550.81 28.27
-2 -9 1 530.07 25.99
-9 -2 -1 595.94 23.96
2 -9 -1 537.42 27.5
-2 -9 1 548.71 26.54
-2 -9 0 73.78 13.54
2 -9 0 73.29 14.33
-9 2 0 90.94 11.04
2 -9 0 82.17 15.59
-2 -9 0 75.38 13.21
-9 2 0 89.18 10.29
-9 -2 0 73.02 8.65
-9 2 0 89.29 9.57
2 -9 1 529.49 26.96
-9 2 -1 543.12 23.84
-2 -9 -1 578.52 26.38
-9 2 -1 531.19 23.91
2 -9 1 505.14 27.36
-9 -2 1 560.35 22.13
-2 -9 -1 564.17 26.33
9 2 1 558.84 22.03
-9 2 -1 606.23 23.85
-2 -9 -2 1184.96 45.86
-9 2 -2 1243.51 44.2
2 -9 2 1118.79 46.02
-9 2 -2 1147.69 43.83
-9 2 -2 1144.76 43.69
9 2 2 1099.42 42.07
-2 -9 -3 15.43 13.19
-9 2 -3 42.77 9.91
9 2 3 63.79 7.65
9 -2 -3 31.8 10.64
2 -9 3 27.47 13.81
-2 -9 -4 43.28 13.49
-9 2 -4 27.4 10.25
2 9 -4 0.7 8.73
9 -2 -4 33.7 10.82
2 -9 4 35.93 13.39
2 -9 5 62.03 14.48
-9 2 -5 33.88 10.63
-2 -9 -5 76.5 14.33
-2 9 5 62.06 12.11
9 -2 -5 47.71 11.42
2 9 -5 33.72 9.32
-9 2 -6 919.73 37.8
2 -9 6 957.93 39.43
-9 2 -6 977.53 37.77
-2 -9 -6 947.63 39.45
-2 9 6 888.05 37.35
9 -2 -6 868.41 36.7
-2 9 7 88.41 12.85
-2 -9 -7 91.09 15.41
-9 2 -7 85.23 12.81
2 -9 7 94.42 15.06
-9 2 -7 70.6 13.16
-2 9 8 43.35 12.71
-2 -9 -8 35.43 14.49
-9 2 -8 42.92 12.11
-9 2 -8 34.9 12.88
-2 9 9 39.22 13.49
-9 2 -9 48.1 12.76
-9 2 -9 37.79 13.96
-2 -9 -9 17.48 14.98
-2 9 10 1008.42 42.47
-9 2 -10 983.59 42.57
-2 -9 -10 1066.73 43.99
-9 2 -10 980.97 43.11
2 9 -10 1066.15 40.7
2 9 -11 22.3 10.66
-2 9 11 45 14.55
-9 2 -11 8.48 14.03
-2 -9 -11 9.43 15.61
-9 2 -11 21.96 15.73
2 9 -11 4.67 13.18
-2 9 12 45.42 15.26
2 9 -12 21.71 14.93
-2 -9 -12 50.31 16.24
-9 2 -12 60.24 16.11
-9 2 -12 25.15 14.79
-2 9 13 39.45 15.73
-2 -9 -13 89.27 17.36
-9 2 -13 59.83 16.09
-9 2 -13 33.21 16.71
2 9 -13 65.22 15.59
-2 -9 -14 187.58 19.97
-9 2 -14 177.13 18.78
-9 2 -14 160.99 20.11
2 9 -14 134.02 18.61
-9 2 -15 48.64 18.79
-2 -9 -15 93.86 18.6
-9 2 -15 71.57 17.41
-2 -9 -16 -3.24 17.41
-9 2 -16 11.04 19.39
-9 2 -16 -4.17 16.39
-2 -9 -17 63.01 18.99
-9 2 -17 73.31 20.57
-9 2 -17 69.03 17.75
-2 -9 -18 102.56 20.08
-9 2 -18 67.86 21.54
-9 2 -18 62.93 18.27
-2 -9 -19 -6.28 18.84
-9 2 -19 -25.48 20.72
-9 2 -19 9.33 17.34
-2 -9 -20 14.79 19.29
-9 2 -20 -4.43 21.33
-9 2 -20 -6.78 17.82
-2 -9 -21 72.42 21.64
-9 2 -21 41.59 22.35
-9 2 -21 29.06 19.5
-2 -9 -22 89 22.44
-9 2 -22 104.31 24.36
-9 2 -22 42.67 19.73
-2 -9 -23 50.18 22.32
-9 2 -23 -7.48 23.6
-9 2 -23 -8.66 20.27
-9 2 -24 -7.78 24.52
-9 2 -24 37.88 21.29
-9 2 -25 38.77 26.48
-9 2 -25 35.12 21.84
-9 2 -26 16.43 26.52
-9 2 -26 -6.92 21.73
-9 -3 -26 4.03 25.28
-3 9 -26 -31.23 28.57
-9 -3 -26 17.71 21.92
-9 -3 -25 38 25.87
-3 9 -25 34.51 27.88
-9 -3 -25 11.55 21.66
-9 -3 -24 1.27 24.16
-3 9 -24 33.53 27.05
-9 -3 -24 46.32 21.59
-9 -3 -23 47.98 24.59
-3 9 -23 51.27 26.51
-9 -3 -23 3.29 20.35
-9 -3 -22 34.37 22.84
-3 9 -22 27.97 25.1
-9 -3 -22 37.21 19.84
-9 -3 -21 58.84 22.62
-3 9 -21 37.16 23.83
-9 -3 -21 69.69 19.96
-9 -3 -20 35.61 21.53
-9 -3 -20 48.49 19.07
-3 9 -20 21.22 22.66
-9 -3 -19 34.51 18.06
-3 9 -19 25.85 21.81
-9 -3 -19 45.33 21.51
-3 9 -19 -3.29 16.95
-9 -3 -18 -12.04 17.57
3 9 18 16.45 16.36
-3 9 -18 20.94 16.71
-9 -3 -18 22.52 20.26
-3 9 -18 21.91 21.21
-9 -3 -17 135.37 19.07
3 9 17 152.93 18.44
-3 9 -17 127.82 18.19
-9 -3 -17 164.48 21.94
-3 9 -17 188.2 23.1
-9 -3 -16 24.81 16.33
3 9 16 17.88 15.9
-3 9 -16 27.79 15.43
-3 9 -16 30.63 20.03
-9 -3 -16 60.51 18.67
-9 -3 -15 173.62 19.61
3 -9 -15 206.67 18.01
3 9 15 127 17.88
-3 9 -15 140.84 22.09
-9 -3 -15 118.93 19.74
-3 9 -15 129.3 17.17
-9 -3 -14 83.67 17.22
3 -9 -14 110.82 17.56
3 9 14 66.74 15.76
-3 9 -14 70.38 19.44
-9 -3 -14 98.52 18.27
-3 9 -14 77.54 16.07
-9 -3 -13 19.38 15.3
3 9 13 49.41 15.15
-3 9 -13 33.1 18.46
-9 -3 -13 58.15 16.5
-3 9 -13 53.28 14.45
-3 9 -12 122.41 16.12
3 9 12 112.99 16.09
-9 -3 -12 101.4 16
3 -9 -12 133.32 17.54
-9 -3 -12 70.01 16.88
-3 9 -11 22.61 13.78
3 9 11 44.3 14.88
-9 -3 -11 8.08 13.38
-9 -3 -11 36.6 14.75
3 -9 -11 21.93 15.38
-3 9 -10 171.41 16.07
-9 -3 -10 154.27 16.55
3 9 10 138.94 16.58
3 -9 -10 134.23 17.14
-9 -3 -10 137.29 16.52
-9 -3 -9 513.06 26.63
3 -9 -9 577.25 28.35
-9 -3 -9 574.5 27.42
-3 -9 9 536.01 25.95
-3 9 -9 566.94 27
-9 -3 -8 64.67 12.87
-9 -3 -8 70.85 13.55
3 -9 -8 53.48 14.77
-3 9 -8 63.13 13.08
-3 -9 8 74.42 12.6
-3 -9 7 195.79 15.29
-9 -3 -7 199.07 15.23
3 -9 -7 190.72 17.48
-9 -3 -7 197.4 15.9
-3 -9 6 73.38 12.42
-9 -3 -6 75.14 12.32
-9 -3 -6 79.83 11.9
3 -9 -6 81.82 14.69
3 -9 -5 99.52 15.24
-9 -3 -5 59.74 10.73
-3 -9 5 89.67 12.99
-9 -3 -5 73.71 11.73
-9 -3 -4 167.12 13.16
-3 -9 4 148.8 14.29
3 -9 -4 151.62 16.67
3 -9 -3 16.37 13.46
-3 -9 3 23.63 11.79
-9 -3 -3 20.52 9.78
3 -9 -3 37.12 15.53
-9 3 3 27.85 7.35
-3 -9 2 98.26 13.1
3 -9 -2 78.84 14.77
3 -9 -2 63.03 15.34
-9 3 2 83.8 8.88
-9 -3 -2 105.74 10.77
3 -9 -1 706.28 31.8
-3 -9 1 678.02 30.43
-9 3 1 691.9 27.73
-9 -3 -1 722.95 28.03
3 -9 -1 718.15 32.58
-3 -9 1 669.38 29.62
-9 3 0 179.06 12.58
3 -9 0 187.03 16.91
-3 -9 0 200.98 15.76
-9 -3 0 172.19 11.28
-9 3 0 178.75 12.1
-3 -9 0 170.34 14.74
3 -9 0 158.37 17.36
-9 3 0 162.25 13.48
-3 -9 -1 635.93 29.23
-9 3 -1 690.73 27.14
-9 -3 1 649.29 25.55
3 -9 1 637.9 30.4
-9 3 -1 673.98 27.5
3 -9 1 653.86 31.22
-3 -9 -1 652.44 28.68
-9 3 -1 640.72 27.84
9 3 2 69.11 7.22
-9 3 -2 82.48 11.97
-3 -9 -2 96.27 14.12
-9 3 -2 65.7 11.12
3 -9 2 71.95 14.74
-9 3 -2 102.98 10.57
3 -9 3 32.47 14.17
9 3 3 24.26 6.71
-3 -9 -3 12 12.41
-3 9 3 25.5 10.59
9 -3 -3 33.58 11.66
-9 3 -3 23.56 9.71
3 -9 4 158.86 17.01
-3 9 4 184.29 13.77
-3 -9 -4 152.51 15.62
9 -3 -4 147.1 14.36
-9 3 -4 155.75 13.28
-9 3 -5 73.4 11.78
-3 9 5 64.77 11.63
-3 -9 -5 64.94 14.48
9 -3 -5 54.69 12.81
3 -9 5 79.56 15.08
-9 3 -6 87.35 12.25
-3 -9 -6 55.61 14.77
3 -9 6 83 15.36
9 -3 -6 52.56 13.01
-3 9 6 83.64 12.39
-9 3 -7 227.82 16.46
-3 9 7 227.63 16.61
-3 -9 -7 232.71 18.29
3 -9 7 227.95 19.06
-3 9 8 47.49 12.66
-9 3 -8 47.53 12.21
-9 3 -8 53.18 13.96
-3 -9 -8 58.24 14.81
-9 3 -9 543.96 26.94
-3 -9 -9 562.29 28.87
-9 3 -9 498.27 27.54
-3 9 9 619.7 27.42
-3 9 10 114.98 15.87
-9 3 -10 101.8 17.18
3 9 -10 169.62 15.2
-3 -9 -10 133.11 17.8
-9 3 -10 108.41 14.95
-3 9 11 8.13 14.77
-9 3 -11 25.64 14.74
-3 -9 -11 24.05 16.26
-9 3 -11 6.53 13.24
-3 9 12 131.26 17.55
-9 3 -12 110.98 18.03
-9 3 -12 142.44 16.61
-3 -9 -12 97.29 17.92
-9 3 -13 48.07 17.1
-9 3 -13 55.29 15.45
-3 -9 -13 80.42 17.7
-9 3 -14 96.53 18.96
-9 3 -14 105.82 17.15
-3 -9 -14 77.35 18.88
-9 3 -15 174.42 21.54
-9 3 -15 127.34 19.02
-3 -9 -15 122.18 20.02
-9 3 -16 40.86 19.06
-9 3 -16 18.72 16.39
-3 -9 -16 34.21 17.99
-9 3 -17 199.63 21.22
-9 3 -17 151.22 23.49
-9 3 -18 -6.21 20.75
-9 3 -18 0.91 17.24
-9 3 -19 11.89 20.98
-9 3 -19 16.87 17.34
-9 3 -20 -24.78 21.74
-9 3 -20 9.72 17.57
-9 3 -21 57.5 23
-3 -9 -21 52.92 21.39
-9 3 -21 63.22 19.4
-9 3 -22 -4.87 22.31
-9 3 -22 23.82 19.69
-9 3 -23 -13.87 23.84
-3 -9 -23 61.84 23.02
-9 3 -23 32.05 20.66
-9 3 -24 15.6 24.81
-3 -9 -24 24.22 23.03
-9 3 -24 -15.49 20.82
-9 3 -25 41.89 26.41
-3 -9 -25 37.57 23.47
-9 3 -25 20.63 21.82
-9 3 -26 44.07 22.51
-4 9 -26 56.87 29.04
-9 -4 -26 -5.32 25.68
-9 -4 -25 50.41 22.83
-4 9 -25 -1.35 27.95
-9 -4 -25 14.28 25.39
-9 -4 -24 -19.46 20.9
-4 9 -24 22.47 27.41
-9 -4 -24 25.28 24.51
-9 -4 -23 73.68 21.63
-4 9 -23 46.26 27
-9 -4 -23 42.96 24.65
-9 -4 -22 47.71 20.39
-4 9 -22 33.64 25.92
-9 -4 -22 16.58 22.83
-9 -4 -21 -5.27 18.68
-4 9 -21 22.58 23.33
-9 -4 -21 26.2 22.27
-4 9 -20 19.61 23.45
-4 9 -20 17.69 17.48
-9 -4 -20 23.96 21.78
-9 -4 -20 14.26 18.54
-4 9 -19 62.21 23.07
-4 9 -19 17.21 16.93
-9 -4 -19 -11.51 20.4
-9 -4 -19 28.49 18.61
4 9 19 55.23 17
4 9 18 68.15 17.23
-4 9 -18 68.28 17.84
-4 9 -18 82.83 22.63
-9 -4 -18 51.91 18.79
-9 -4 -18 44.74 21.33
4 9 17 12.35 15.54
-4 9 -17 33.47 16.76
-4 9 -17 43.07 21.67
-9 -4 -17 18.96 17.75
-9 -4 -17 59.12 20.65
4 9 16 87.37 16.75
-4 9 -16 74.34 20.94
-4 9 -16 77.74 17.01
-9 -4 -16 58.46 19.11
-9 -4 -16 77.88 18.02
-4 9 -15 195.69 23.6
4 9 15 164.8 19.12
4 -9 -15 298.28 18.15
-9 -4 -15 184.73 20.57
-4 9 -15 219.17 19.86
-9 -4 -15 231.05 22.28
4 9 14 19.73 14.78
-9 -4 -14 27.43 17.36
-9 -4 -14 22.19 15.66
-4 9 -14 49.67 19.27
-4 9 -14 33.15 15.31
-9 -4 -13 18.94 14.88
-9 -4 -13 37.37 16.72
-4 9 -13 16.32 14.64
4 -9 -13 73.6 15.42
-4 9 -13 16.44 17.71
4 9 13 16.55 15.14
-9 -4 -12 66.91 16.39
-4 9 -12 79.49 15.21
4 -9 -12 87.75 16.47
-9 -4 -12 52.57 15.46
4 9 12 58.53 15.35
-9 -4 -11 40.49 14.85
-4 9 -11 34.3 14.05
4 -9 -11 26.15 15.67
-9 -4 -11 59.61 15.03
4 9 11 39.66 14.63
-9 -4 -10 228.5 18.75
4 -9 -10 205.72 19
-4 9 -10 221.48 18.04
-9 -4 -10 222.86 18.44
-9 -4 -9 193.09 16.97
4 -9 -9 197.76 18.25
-4 9 -9 213.88 17.27
-9 -4 -9 199.03 17.35
-9 -4 -8 36.71 12.43
4 -9 -8 31.94 14.12
-4 9 -8 23.46 12.31
-9 -4 -8 14.29 12.12
4 -9 -7 423.5 23.51
-9 -4 -7 416.88 21.71
-4 -9 7 386.43 20.57
-9 -4 -7 371.5 20.69
4 -9 -6 74.18 14.78
-4 -9 6 50.02 11.65
-9 -4 -6 67.44 12.13
4 -9 -5 147.72 16.16
-9 -4 -5 122.8 12.86
-4 -9 5 125.73 13.27
4 -9 -4 68.28 14.1
-4 -9 4 90.59 12.57
4 -9 -4 55.1 16.56
-9 -4 -4 77.54 11.55
4 -9 -3 71.76 14.45
-4 -9 3 58.94 12.33
-9 -4 -3 69.28 10.52
4 -9 -3 68.07 15.67
4 -9 -2 161.05 16.52
-4 -9 2 189.77 14.84
-9 4 2 181.59 11.63
-9 -4 -2 161.53 12.55
4 -9 -2 187.48 18.28
-4 -9 1 539.02 24.95
-9 4 1 518.39 22.27
4 -9 -1 496.53 26.13
-9 -4 -1 521.73 22.46
4 -9 -1 502.49 27.69
-4 -9 1 506.4 23.28
-4 -9 0 235.51 16.47
4 -9 0 219.28 18.57
-9 4 0 235.22 13.72
-4 -9 0 216.91 15.32
4 -9 0 216.67 18.99
-9 4 0 212.74 13.99
-4 9 1 541.17 22.18
-4 -9 -1 480.32 24.51
4 -9 1 508.4 26.23
4 -9 1 509.17 27.23
-4 -9 -1 500.68 23.84
-9 4 -1 510.33 22.77
-9 4 -2 207.87 13.79
-4 9 2 197.05 13.16
-4 -9 -2 186.83 16.08
4 -9 2 198.66 18.03
4 -9 3 52.22 14.6
9 4 3 45.73 7.1
-4 -9 -3 90.68 13.9
-4 9 3 40.76 10.15
9 -4 -3 58.87 13.14
-9 4 -3 42.48 10.02
9 -4 -4 72.3 11.83
-9 4 -4 65.9 11.83
-4 -9 -4 51.99 13.75
4 -9 4 85.34 14.99
-4 9 4 65.05 10.93
9 -4 -4 53.26 13.38
-9 4 -5 141.67 13.26
-4 -9 -5 138.16 15.89
4 -9 5 104.85 15.92
9 -4 -5 132.54 15.08
-4 9 5 110.15 12.92
-9 4 -6 42.34 11.27
4 -9 6 47.33 15.76
-4 -9 -6 36.11 14.27
9 -4 -6 49.97 13.78
-4 9 6 14.44 11.19
-4 -9 -7 408.21 23.66
-4 9 7 410.99 21.51
-9 4 -7 395.42 21.65
-9 4 -8 31.04 12.54
-4 9 8 18.82 12.23
-4 -9 -8 23.6 14.89
-9 4 -9 132.23 15.77
-9 4 -9 178.27 17.92
-4 9 9 210.23 16.8
-4 -9 -9 177.51 18.5
-9 4 -10 179.91 16.72
-9 4 -10 182.22 18.81
-4 9 10 164.51 17.54
-4 -9 -10 184.48 18.93
-4 -9 -11 31 16.23
-9 4 -11 37.33 14.15
-9 4 -11 31.68 16.12
-4 -9 -12 14.7 16.91
-9 4 -12 62.89 17.47
-9 4 -12 80.96 14.96
-9 4 -13 8.22 16.84
-9 4 -13 8.78 14.53
-9 4 -14 23.6 18.03
-9 4 -14 29.29 15.52
-9 4 -15 184.45 22.29
-9 4 -15 174.38 19.62
-9 4 -16 51.84 19.83
-9 4 -16 101.01 18.38
-9 4 -17 33.97 20.35
-9 4 -17 30.49 16.96
-9 4 -18 61.23 21.33
-9 4 -18 64.21 18.22
-9 4 -19 30.99 21.73
-9 4 -19 3.84 17.78
-9 4 -20 -12.65 22.15
-9 4 -20 14.79 18.34
-9 4 -21 26.31 23.29
-9 4 -21 3.03 18.38
-9 4 -22 57.1 24.88
-9 4 -22 34.35 20.02
-9 4 -23 96.18 26.16
-9 4 -23 35.38 20.3
-9 4 -24 7.94 25.41
-9 4 -24 26.4 20.74
-9 4 -25 33.99 26.01
-9 4 -25 2.27 20.95
-4 -9 -25 30.89 23.59
-9 4 -26 10.51 22.46
-4 -9 -26 6.72 24.26
-9 -5 -25 20.21 22.44
-5 9 -25 4.15 28.54
-5 9 -24 17.55 27.05
-9 -5 -24 10.02 24.33
-9 -5 -24 11.67 21.25
-5 9 -23 15.83 27.66
-9 -5 -23 61.95 24.59
-9 -5 -23 18.2 21.05
-5 9 -22 3.81 25.23
-9 -5 -22 38.73 20.56
-9 -5 -22 43.48 23.41
-5 9 -21 18.3 23.91
-9 -5 -21 -1.07 19.49
-5 9 -21 2.86 18.16
-9 -5 -21 3.4 22.1
-9 -5 -20 1.09 21.29
-5 9 -20 9.48 23.18
-9 -5 -20 26 19.29
-5 9 -20 0.92 17.72
5 9 20 -14.04 16.77
-9 -5 -19 45.92 21.39
-5 9 -19 17.18 23.08
-5 9 -19 40.32 17.91
5 9 19 -5.86 16.01
-9 -5 -19 25.14 19.14
-9 -5 -18 78.56 18.88
-5 9 -18 77.27 23.15
-5 9 -18 65.05 17.99
5 9 18 99.18 17.48
-9 -5 -18 70.75 21.61
-9 -5 -17 74.65 18.93
-5 9 -17 36.01 21.71
-5 9 -17 51.2 18.25
5 9 17 67.69 16.17
-9 -5 -17 61.65 20.49
-9 -5 -16 26.92 16.97
-5 9 -16 42.91 20.84
-5 9 -16 18.84 16.05
5 9 16 4.44 15.09
-9 -5 -16 7.19 19.17
-5 9 -15 51.67 20.26
-9 -5 -15 53.37 17.5
-5 9 -15 62.78 16.6
5 9 15 66.14 16.27
-9 -5 -15 48.42 18.83
-9 -5 -14 33.44 17.95
-5 9 -14 10.31 18.85
-9 -5 -14 23.89 16.59
-5 9 -14 9.94 15.05
5 9 14 39.89 14.91
5 -9 -14 -6.74 15.17
-9 -5 -13 57.41 17.64
-5 9 -13 50.61 19.7
5 -9 -13 2.64 16.06
-5 9 -13 70.7 15.86
-9 -5 -13 77.05 17.09
5 9 13 57.2 15.55
-9 -5 -12 173.69 18.94
5 -9 -12 153.85 18.46
-9 -5 -12 169.19 19.09
-5 9 -12 170.83 17.71
5 9 12 161.97 18.23
-9 -5 -11 58.76 15.8
-5 9 -11 57.96 14.35
-9 -5 -11 66.14 15.8
5 -9 -11 94.43 16.46
-9 -5 -10 142.75 16.73
5 -9 -10 132.94 17.2
-9 -5 -10 208.19 17.78
-5 9 -10 144.23 17
-9 -5 -9 68.7 14.47
5 -9 -9 70.36 16.06
-5 9 -9 74.99 14.21
-9 -5 -8 52.69 13.39
5 -9 -8 62.05 15.69
-5 9 -8 21.58 13.26
5 -9 -7 267.3 19.92
-5 9 -7 275.69 18.98
-9 -5 -7 276.08 18.25
-9 -5 -6 49.85 12.34
5 -9 -6 26.81 14.46
-9 -5 -5 -0.98 10.71
5 -9 -5 6.9 15.7
-5 -9 5 -2.37 10.79
5 -9 -5 3.96 13.56
-9 -5 -4 30.86 10.84
5 -9 -4 10.11 15.72
-5 -9 4 -4.89 11.06
5 -9 -4 5.65 14.39
-9 -5 -3 48.61 10.59
5 -9 -3 40.62 16.54
-5 -9 3 74.32 12.04
5 -9 -3 41.82 14.48
5 -9 -2 333.83 21.03
5 -9 -2 341.88 22.89
-5 -9 2 291.39 18.26
5 -9 -1 509.07 19.71
-5 -9 1 499.34 16.96
5 -9 -1 509.43 21.94
5 -9 0 27.85 15.94
-5 -9 0 45.45 12.09
-9 5 0 31.92 9.24
-5 9 0 -3.65 3.96
5 -9 0 33.29 14.44
-5 -9 -1 468.17 18.28
-5 -9 -1 523.81 16.8
-9 5 -1 514.81 16.11
5 -9 1 514.64 21.13
9 -5 -2 310.99 18.32
5 -9 2 276.19 20.68
-5 -9 -2 292.18 18.82
-5 9 2 281.83 14.5
-9 5 -2 330.93 17.04
9 -5 -2 305.1 19.93
-5 9 3 58.15 9.99
-9 5 -3 67.94 11.09
-5 -9 -3 32.89 13.1
9 -5 -3 61.54 14.35
5 -9 3 41.21 15.46
9 -5 -3 47.08 12.66
-5 9 4 2.75 9.7
-9 5 -4 24.28 10.74
-5 -9 -4 11.82 12.76
9 -5 -4 1.06 13.74
9 -5 -4 11.91 11.65
5 -9 4 24.45 14.91
9 -5 -5 4.8 11.51
9 -5 -5 37.29 14
-5 -9 -5 12.85 13.9
5 -9 5 -5.03 15.23
-5 9 5 2.98 10.62
-9 5 -5 24.71 11.12
-5 -9 -6 10.51 13.75
-5 9 6 20.37 11.82
9 -5 -6 29.32 14.78
-9 5 -6 35.53 11.76
-5 9 7 244.49 17.69
-9 5 -7 272.72 17.96
-5 -9 -7 258.47 19.58
-9 5 -8 46.81 13.13
-5 -9 -8 55.26 15.12
-5 -9 -9 42.49 15.67
-9 5 -9 51.69 13.75
-9 5 -10 192.56 17.49
-5 -9 -10 229.75 20.39
-9 5 -10 163.42 19.43
-9 5 -11 79.77 17.49
-9 5 -11 56.05 14.82
-9 5 -12 170.05 19.98
-9 5 -12 152.16 17.69
-9 5 -13 69.86 18.66
-9 5 -13 38.88 15.12
-9 5 -14 37.75 18.71
-9 5 -14 12.48 15.57
-9 5 -15 60.58 20.17
-9 5 -15 66.86 17.22
-9 5 -16 29.03 16.3
-9 5 -16 43.58 19.83
-9 5 -17 76.54 17.8
-9 5 -17 69.26 20.85
-9 5 -18 80.01 18.99
-9 5 -18 101.98 22.45
-9 5 -19 24.47 18.35
-9 5 -19 25.89 22.02
-9 5 -20 14.1 18.68
-9 5 -20 3.54 22.14
-9 5 -21 37.14 19.38
-9 5 -21 9.76 23.24
-9 5 -22 14.74 19.58
-9 5 -22 20.23 24.44
-9 5 -23 1.08 20.21
-9 5 -23 36.59 25.04
-9 5 -24 21.02 20.06
-9 5 -24 1.34 25.54
-9 5 -25 -11.32 20.77
-9 5 -25 34.59 26.97
-6 9 -25 4.24 28.45
-6 9 -24 4.14 27.29
-6 9 -23 32.88 21.54
-6 9 -23 25.64 27.54
-9 -6 -23 24.2 21.85
-6 9 -22 80.46 21.16
-6 9 -22 68.62 26.36
-9 -6 -22 30.36 20.59
-6 9 -21 28.69 19.7
-6 9 -21 23.81 24.58
-9 -6 -21 37.26 20.65
-6 9 -20 2.87 18.05
-9 -6 -20 24.54 19.39
-6 9 -20 36.47 23.77
-9 -6 -19 44.41 19.59
-9 -6 -19 45.67 21.13
-6 9 -19 33.47 18.15
-6 9 -19 29.52 23.37
6 9 19 58.88 17.14
-9 -6 -18 144.81 21.4
-9 -6 -18 156.77 22.89
-6 9 -18 130.35 20.09
-6 9 -18 116.76 25.07
6 9 18 143.15 18.66
-9 -6 -17 33.65 18.06
-9 -6 -17 33.08 19.92
-6 9 -17 30.19 17.12
-6 9 -17 23.01 21.54
6 9 17 30.76 16.09
-9 -6 -16 40.63 17.65
-9 -6 -16 15.23 18.95
-6 9 -16 22.19 16.91
6 9 16 22.17 15.19
-6 9 -16 27.39 21.24
-6 9 -15 19.86 16.31
-9 -6 -15 10.17 18.32
6 9 15 45.65 15.4
-9 -6 -15 33.69 16.95
-6 9 -15 19.19 20.88
-6 9 -14 260.93 21.2
-9 -6 -14 248.71 23.04
6 9 14 260.08 20.84
-9 -6 -14 267.56 22.47
-6 9 -14 285.35 25.27
-6 9 -13 75.22 17.11
-9 -6 -13 104.8 17.95
-9 -6 -13 105.3 18.63
-6 9 -13 98.48 20.77
6 9 13 105.22 16.89
-6 9 -12 157.09 17.74
6 9 12 170.23 17.99
6 -9 -12 127.34 17.94
-9 -6 -12 149.64 18.48
6 -9 -11 171.8 18.54
-9 -6 -11 175.62 18.72
-6 9 -11 153.1 17.49
6 -9 -10 294.89 20.63
-9 -6 -10 233.66 19.76
-6 9 -10 221.99 19.22
6 -9 -9 222.26 19.26
-9 -6 -9 210.28 18.79
-6 9 -9 236.06 18.51
6 -9 -8 107.81 16.43
-9 -6 -8 97.99 14.84
-6 9 -8 88.52 14.52
6 -9 -7 21.88 14.56
-6 9 -7 19.71 12.59
-9 -6 -7 37.11 12.87
-6 9 -6 707.78 32.63
6 -9 -6 762.62 33.83
6 -9 -5 213.57 20.82
6 -9 -5 196.12 18.16
6 -9 -4 112.58 18.05
6 -9 -4 121.93 16.32
6 -9 -3 192.95 20
6 -9 -3 179.58 17.62
-6 -9 3 207.98 14.84
-6 -9 2 850.46 34.68
6 -9 -2 873.88 37.19
6 -9 -2 789.25 38.32
-6 -9 1 143.54 13.91
6 -9 -1 136.99 16.56
6 -9 -1 120.74 18.32
-6 -9 0 44.36 12.13
6 -9 0 60.38 15.03
6 -9 0 29.97 15.84
-9 6 -1 179.99 12.28
9 -6 -1 174.18 15.33
6 -9 1 182.11 16.97
-6 -9 -1 175.79 14.23
-6 -9 -2 888.29 21.78
9 -6 -2 809.6 23.2
9 -6 -2 893.1 22.07
6 -9 2 880.75 24.7
-9 6 -2 833.18 19.55
-6 -9 -3 202.99 16.97
9 -6 -3 221.51 16.94
6 -9 3 178.95 18.61
9 -6 -3 167.82 18.19
-9 6 -3 206.83 14.65
9 -6 -4 86.74 14.02
6 -9 4 111.11 17.26
-6 -9 -4 105.83 14.84
-9 6 -4 114.12 12.73
9 -6 -4 91.98 16.33
9 -6 -5 194.83 16.39
-9 6 -5 223.85 16.02
-6 -9 -5 212.11 17.86
6 -9 5 196.67 19.62
9 -6 -5 200.73 18.59
-9 6 -6 685.48 31.1
-6 -9 -6 741.27 32.88
9 -6 -6 666.04 32.82
-9 6 -7 37.18 12.42
9 -6 -7 67.01 16.36
-6 -9 -7 20.53 14.55
-9 6 -8 96.98 14.38
-6 -9 -8 87.37 16.59
-9 6 -9 259.6 19.15
-6 -9 -9 245.75 21.13
-9 6 -10 260.86 19.73
-9 6 -11 185.45 18.32
-9 6 -11 180.33 20.92
-9 6 -12 159.36 18.06
-9 6 -12 111.91 19.82
-9 6 -13 86.89 16.55
-9 6 -13 105.4 20.24
-9 6 -14 309.33 22.85
-9 6 -14 290.52 25.29
-9 6 -15 25.75 15.95
-9 6 -15 39.15 19.53
-9 6 -16 63.01 17.25
-9 6 -16 38.94 20.07
-9 6 -17 25.64 20.86
-9 6 -17 19.84 16.83
-9 6 -18 174.29 25.06
-9 6 -18 124.66 20.08
-9 6 -19 58.72 23.16
-9 6 -19 70.77 19.39
-9 6 -20 47.88 23.26
-9 6 -20 27.7 19.52
-9 6 -21 71.59 25.4
-9 6 -21 53.73 19.77
-9 6 -22 54.24 25.53
-9 6 -22 69.12 21.66
-9 6 -23 43.96 25.94
-9 6 -23 44.97 21.2
-9 6 -24 -12.34 25.77
-9 6 -24 25.77 20.83
-9 6 -25 51.27 22.38
-7 9 -24 -14.09 28.4
-7 9 -24 20.24 22.11
-7 9 -23 26.1 26.94
-7 9 -23 -10.99 21.27
-7 9 -22 9.24 25.78
-7 9 -22 14.75 20.01
-7 9 -21 53.97 26.07
-7 9 -21 76.83 20.71
-7 9 -20 23.66 24.74
-7 9 -20 35.67 19.21
-7 9 -19 74.15 24.77
-7 9 -19 26.01 18.79
-7 9 -18 43.06 23.28
-7 9 -18 45.18 18.28
7 9 18 17.46 15.46
-7 9 -17 30.57 21.59
-7 9 -17 39.54 17.82
7 9 17 33.74 16.18
-7 9 -16 9.77 16.75
7 9 16 23.02 15.15
-7 9 -16 26.03 21.1
-9 -7 -16 30.3 17.65
-7 9 -15 11.14 15.97
-7 9 -15 17.74 20
7 9 15 13.01 14.53
-9 -7 -15 18.21 16.89
-7 9 -14 20.08 20.86
7 9 14 39.83 15.33
-9 -7 -14 30.6 16.95
-7 9 -14 26.46 16.21
-7 9 -13 216.93 19.94
-7 9 -13 199.97 23.48
7 9 13 195.22 19.07
-7 9 -12 16.32 15.07
-7 9 -11 111.79 16.39
7 -9 -10 276.63 20.74
-7 9 -10 230.76 19.51
7 -9 -9 115.16 17.2
-7 9 -9 89.82 15.01
7 -9 -8 85.66 16.25
-7 9 -8 58.39 14.34
7 -9 -7 60.23 16.06
-7 9 -7 20.01 13.2
7 -9 -6 88.66 16.2
-7 9 -6 67.84 13.91
7 -9 -6 77.59 18.46
7 -9 -5 393.83 25.77
7 -9 -5 385.8 23.57
7 -9 -4 70.02 15.39
7 -9 -4 80.96 17.83
7 -9 -3 245.47 19.19
7 -9 -3 221.01 21.4
-7 -9 2 148.13 13.89
7 -9 -2 166.21 17.48
-9 -7 -2 161.91 14.5
7 -9 -2 152.55 19.66
-7 -9 1 17.6 11.35
7 -9 -1 22.35 14.46
-9 -7 -1 30.42 10.99
7 -9 -1 8.99 16.42
7 -9 0 3.07 14.66
-7 -9 0 3.62 11.58
9 -7 0 0.57 13.85
9 -7 -1 24.41 13.87
7 -9 1 30.79 15.5
-7 -9 -1 4.32 11.84
9 -7 -2 200.9 17.54
7 -9 2 192.94 18.91
-7 -9 -2 178.62 16.03
-9 7 -2 165.06 14.17
9 -7 -2 158.77 17.98
-7 -9 -3 229.29 17.45
9 -7 -3 234.28 18.16
7 -9 3 246.42 20.14
9 -7 -3 199.92 19.6
-9 7 -3 210.66 15.92
7 -9 4 64.84 16.39
9 -7 -4 67.43 14.58
-7 -9 -4 61.48 14.07
-9 7 -4 77.04 12.66
9 -7 -4 60.66 16.62
-9 7 -5 358.06 21.17
9 -7 -5 371.61 24.17
9 -7 -5 385.6 22.42
-7 -9 -5 396.29 22.75
9 -7 -6 113.15 18.22
-9 7 -6 96.9 13.71
9 -7 -6 81.21 15.26
-7 -9 -6 78.89 15.82
-9 7 -7 0.62 12.35
9 -7 -7 20.76 16.13
-7 -9 -7 29.34 14.86
-9 7 -8 42.6 13.68
-7 -9 -8 66.33 16.24
-9 7 -9 106.1 15.65
-9 7 -10 250.74 19.93
-9 7 -11 139.11 17.35
-9 7 -12 17.92 18.2
-9 7 -12 2.29 14.52
-9 7 -13 159.32 22.67
-9 7 -13 211.78 20.03
-9 7 -14 -1.95 18.83
-9 7 -14 47.45 16.11
-9 7 -15 30.75 21.09
-9 7 -15 2.57 16.03
-9 7 -16 21.18 19.89
-9 7 -16 16.81 16.78
-9 7 -17 13.27 21.08
-9 7 -17 31.13 17.24
-9 7 -18 24.78 18.1
-9 7 -18 52.79 22.91
-9 7 -19 65.2 18.94
-9 7 -19 45.17 23.06
-9 7 -20 37.14 19.4
-9 7 -20 84.66 24.86
-9 7 -21 44 21.06
-9 7 -21 59.73 25.61
-9 7 -22 24.24 20.69
-9 7 -22 5.31 25.48
-9 7 -23 -2.24 20.55
-9 7 -23 16.31 25.88
-9 7 -24 -20.51 21.27
-9 7 -24 -11.17 26.91
-8 9 -24 31.29 22.3
-8 9 -24 14.35 28.02
-8 9 -23 1.13 21.49
-8 9 -23 12.56 27.46
-8 9 -22 47.87 20.91
-8 9 -22 26.91 26.09
-8 9 -21 -7.41 19.85
-8 9 -21 1.32 24.95
-8 9 -20 26.64 19.5
-8 9 -20 1.27 24.74
-8 9 -19 62.43 25.07
-8 9 -19 96.58 20.27
-8 9 -18 28.66 23.64
-8 9 -18 43.61 18.75
-8 9 -17 4.65 22.28
-8 9 -17 24.71 18.37
8 9 16 2.23 15.01
-8 9 -16 34.57 21.82
-8 9 -16 5.53 16.97
8 9 15 31.01 15.38
-8 9 -15 16.13 21.02
-8 9 -15 36.32 17.17
-8 9 -14 40.5 16.66
8 9 14 68.3 16.33
-8 9 -14 67.35 21.66
-8 9 -13 1.65 15.15
8 9 13 39.35 15.6
-8 9 -13 24.11 19.94
-8 9 -12 88.54 17.01
-8 9 -11 139.24 17.97
-8 9 -10 165.35 18.08
-8 9 -9 50.05 14.89
-8 9 -8 89.18 15.33
8 -9 -8 59.3 16.81
-8 9 -7 58.47 13.9
8 -9 -7 60.33 18.99
8 -9 -7 53.76 16.42
8 -9 -6 181.36 18.74
-8 9 -6 188.18 17.11
8 -9 -6 185.31 21.58
8 -9 -5 143.42 17.74
-8 9 -5 130.82 15.18
8 -9 -5 124.53 19.95
-9 -8 -4 170.63 16.46
8 -9 -4 186.16 18.69
8 -9 -4 160.45 20.32
-9 -8 -3 255.69 17.92
8 -9 -3 232.78 21.6
8 -9 -3 240.72 20.29
8 -9 -2 98.86 18.1
-9 -8 -2 107.37 13.87
8 -9 -2 119.72 17.28
8 -9 -1 43.75 15.67
9 -8 1 50.6 16.18
8 -9 -1 -1.45 16.28
8 -9 0 -1.29 15.1
9 -8 0 14.94 15.03
-8 -9 0 1.81 11.55
9 -8 -1 -3.04 15.04
8 -9 1 2.63 14.97
-8 -9 -1 8.2 12.37
-8 -9 -2 109.73 14.88
9 -8 -2 91.67 17.72
9 -8 -2 102.5 16.73
8 -9 2 102.89 17.84
-8 -9 -3 266.69 18.68
-9 8 -3 240.27 17.35
9 -8 -3 300.27 20.52
8 -9 3 283.64 21.81
9 -8 -3 244.23 21.71
-8 -9 -4 172.34 16.76
-9 8 -4 168.32 15.12
9 -8 -4 148.44 19.83
9 -8 -4 141.53 17.35
-9 8 -5 121.77 14.85
-8 -9 -5 154.39 16.88
9 -8 -5 100.17 19.11
9 -8 -5 108.16 16.95
-9 8 -6 184.38 16.62
-8 -9 -6 166.96 18.25
9 -8 -6 182.6 21.12
9 -8 -6 167.62 17.95
9 -8 -7 55.77 18.37
-8 -9 -7 45.85 15.33
-9 8 -7 69.76 14.25
-9 8 -8 68.32 14.63
9 -8 -8 77.37 19.22
-9 8 -9 72.66 15.54
-9 8 -10 203.92 18.99
-9 8 -11 116.2 17.29
-9 8 -12 60.93 19.68
-9 8 -12 46.03 15.91
-9 8 -13 -4.12 15.74
-9 8 -13 28.41 19.42
-9 8 -14 33.45 16.74
-9 8 -14 71.5 21.31
-9 8 -15 25.87 16.66
-9 8 -15 8.46 20.61
-9 8 -16 7.35 16.65
-9 8 -16 15.54 20.61
-9 8 -17 10.36 17.17
-9 8 -17 13.7 21.37
-9 8 -18 38.85 18.06
-9 8 -18 29.78 23.36
-9 8 -19 94.41 20.27
-9 8 -19 66.29 24.82
-9 8 -20 40.55 19.55
-9 8 -20 24.08 24.17
-9 8 -21 -9.69 20.17
-9 8 -21 9.1 24.28
-9 8 -22 31.39 21.28
-9 8 -22 -24.23 25.7
-9 8 -23 64.17 22.5
-9 8 -23 -19.54 26.96
-9 8 -24 34.86 22.62
9 -9 0 4.73 16.2
9 -9 1 32.37 16.17
9 -9 -1 -11.33 16.01
9 -9 -2 34.71 16.18
9 -9 -2 43.61 18.04
-9 -9 -2 42.27 13.42
9 -9 -3 35.49 15.86
9 -9 -3 16.09 17.53
-9 -9 -3 13.11 13.72
9 -9 -4 39.56 16.41
-9 -9 -4 41.88 14.41
-9 9 -4 64.26 13.74
9 -9 -4 12.48 17.71
-9 -9 -5 540.76 26.82
-9 9 -5 482.1 25.78
9 -9 -5 437.47 29.17
9 -9 -5 488.43 27.74
-9 9 -6 120.24 15.89
9 -9 -6 90.77 20.02
-9 -9 -6 129.03 17.84
9 -9 -6 151.59 18.22
-9 9 -7 -0.69 13.65
9 -9 -7 28.1 16.18
9 -9 -7 8.17 18.55
9 -9 -8 30.1 19.52
-9 9 -8 45.14 14.98
9 -9 -9 29.12 19.77
-9 9 -9 29.62 14.3
-9 9 -10 -5.39 14.9
-9 9 -11 74.16 17.16
-9 9 -12 75.33 16.83
-9 9 -13 -7.25 20.26
-9 9 -13 -2.57 16.27
-9 9 -14 176.98 19.88
9 9 14 180.09 19.14
-9 9 -14 137.61 23.54
-9 9 -15 52.37 17.35
-9 9 -15 21.01 21.88
-9 9 -16 31.43 17.45
-9 9 -16 63.01 22.77
-9 9 -17 13.69 18.21
-9 9 -17 28.63 23.12
-9 9 -18 38.94 18.93
-9 9 -18 14.66 23.24
-9 9 -19 2.05 19.16
-9 9 -19 -10.21 23.9
-9 9 -20 37.01 20.18
-9 9 -20 45.61 25.6
-9 9 -21 27.27 20.29
-9 9 -21 -1.34 26.24
-9 9 -22 60.75 22.16
-9 9 -22 86.25 27.93
-9 9 -23 58.33 22.43
-9 9 -23 5.67 27.72
0 -10 0 358.54 22.67
-10 0 0 449.88 18.95
0 -10 0 385.61 23.36
-10 0 -1 142.75 11.92
0 -10 -1 149.38 16.47
0 -10 1 158.49 16.87
0 -10 -1 155.81 16.66
0 -10 1 141.78 16.34
0 -10 -2 297.59 20.8
-10 0 -2 323.36 17.01
0 -10 2 304.03 20.2
0 -10 -2 327.88 21.04
-10 0 -3 58.06 10.82
0 -10 3 54.9 13.82
-10 0 -3 43.2 10.35
0 -10 -3 34.38 14.35
-10 0 -4 480.28 22.82
0 -10 -4 522.55 26.4
0 -10 4 532.3 25.87
-10 0 -4 485.95 23.47
-10 0 -5 -9.47 10.48
0 -10 5 -3.29 12.99
0 -10 -5 3.5 13.52
-10 0 -5 -4.81 10.71
-10 0 -6 96.64 12.64
0 -10 6 94.68 14.66
0 -10 -6 93.23 15.43
-10 0 -6 93.38 13.16
-10 0 -7 154.66 14.82
-10 0 -7 139.81 14.65
0 -10 -7 167 17.3
0 -10 7 131.34 16.29
0 -10 8 93.31 15.25
0 -10 -8 51.66 16.04
0 10 8 84.14 14.39
-10 0 -8 90.03 13.8
-10 0 -8 74.79 13.84
0 -10 -9 358.38 23.61
-10 0 -9 327.37 21.24
-10 0 -9 386.23 22.22
0 10 9 380.79 22.22
0 -10 -10 6.82 15.76
0 10 10 0.6 13.26
-10 0 -10 8.63 13.51
0 10 -10 -1.14 12.19
-10 0 -10 7.16 13.62
0 -10 -11 62.81 16.69
0 10 11 45.24 15.11
-10 0 -11 44.79 15.76
0 10 -11 39.44 13.28
-10 0 -11 41.03 14.71
-10 0 -12 231.8 19.21
0 -10 -12 180.16 20.58
0 10 12 203.34 18.8
-10 0 -12 152.83 19.05
0 10 -12 179.34 20.99
0 10 -12 191.85 16.92
-10 0 -13 13.58 15.23
0 -10 -13 9.84 16.81
0 10 13 -28.44 15.25
-10 0 -13 0.76 16.43
0 10 -13 9.9 16.97
0 10 -13 6.18 12.37
-10 0 -14 -16.64 15.36
0 -10 -14 12.41 17.4
0 10 14 -10.94 15.75
-10 0 -14 -25.91 17.5
0 10 -14 8.78 17.16
0 10 -14 29.24 13.25
0 -10 -15 29.49 17.4
0 10 15 19.97 15.76
-10 0 -15 7.72 18.22
0 10 -15 0.85 18.12
-10 0 -15 3.31 15.68
0 -10 -16 102.79 20.23
0 10 16 76.51 18.42
-10 0 -16 126.7 20.71
0 10 -16 119.51 21.61
-10 0 -16 84.79 17.95
-10 0 -17 132.54 22.37
0 -10 -17 202.75 22.76
0 10 -17 178.37 23.92
-10 0 -17 151.44 20.14
0 -10 -18 17.48 19.23
-10 0 -18 12.33 17.61
-10 0 -18 32.02 20.01
0 10 -18 14.44 20.77
0 -10 -19 74.69 20.48
-10 0 -19 41.68 19.03
-10 0 -19 49.13 21.17
0 -10 -20 92.53 20.96
-10 0 -20 76.61 20.28
-10 0 -20 104.63 23.02
0 -10 -21 -13.29 17.03
-10 0 -21 -25.2 18.96
-10 0 -21 -5.75 21.79
-10 0 -22 20.28 23.2
-10 0 -22 28.03 20
-10 0 -23 12.34 23.27
-10 0 -23 -12.13 20.16
-10 0 -24 -3.83 24.09
-10 0 -24 37.17 21.17
-10 0 -25 43.61 26.4
-10 0 -25 71.49 22.49
-10 -1 -25 28.93 26.11
-10 -1 -25 37.94 21.76
-10 -1 -24 30.58 24.72
-10 -1 -24 -3.39 21.03
-10 -1 -23 50.49 24.47
-10 -1 -23 68.44 21.19
-10 -1 -22 34.34 23.54
-10 -1 -22 24.73 20.01
-10 -1 -21 64.77 22.75
-10 -1 -21 16.73 19.37
-1 10 -21 -13.53 23.8
1 -10 -20 -34.42 14.44
-10 -1 -20 1.09 21.17
-1 10 -20 2.15 22.81
-10 -1 -20 10.16 18.56
-10 -1 -19 10.48 20.36
-1 10 -19 19.76 21.51
-10 -1 -19 1.97 17.99
-10 -1 -18 97.82 22
-1 10 -18 79.97 22.08
-10 -1 -18 73.3 18.86
1 -10 -18 82.5 18.98
1 -10 -17 111.44 20.7
1 10 17 85 18.73
-1 10 -17 106.4 22.42
-10 -1 -17 117.88 19.8
-10 -1 -17 112.17 21.09
1 -10 -16 29.4 18.35
1 10 16 17.52 15.85
-1 10 -16 31.23 20.2
-10 -1 -16 41.95 18.96
-10 -1 -16 34.64 17.11
-10 -1 -15 105.98 18.25
1 -10 -15 107.09 19.65
1 10 15 96.1 17.58
-1 10 -15 74.5 20.36
-1 10 -15 152.5 16.6
-10 -1 -15 142.19 20.3
-10 -1 -14 34.64 16.49
1 -10 -14 13.04 17.06
1 10 14 24.59 15.59
-1 10 -14 0.84 18.16
-1 10 -14 30.9 14.64
-10 -1 -14 15.96 17.15
-10 -1 -13 65.66 16.28
1 -10 -13 59.27 17.17
1 10 13 56.61 15.68
-1 10 -13 65.29 17.85
-1 10 -13 73.37 14.92
-10 -1 -13 43.57 16.79
1 -10 -12 27.24 16.4
1 10 12 48.11 15.01
-10 -1 -12 18.27 16.3
-1 10 -12 23.4 13.88
-10 -1 -12 9.42 14.26
1 -10 -11 112.39 17.76
1 10 11 94.2 15.94
-10 -1 -11 87.87 15.77
-1 10 -11 102.35 15.46
-10 -1 -11 84.53 15.23
1 -10 -10 88.2 16.78
1 10 10 51.51 15.13
-10 -1 -10 72.41 14.95
-1 10 -10 64.33 14.06
-10 -1 -10 50.74 15.03
1 10 9 220.62 18.75
1 -10 -9 217.16 19.81
-10 -1 -9 205.97 18.25
-1 -10 9 275.71 19.11
-10 -1 -9 269.52 18.45
-1 -10 8 51.66 14.28
-10 -1 -8 51.23 13.38
1 -10 -8 79.12 15.33
-10 -1 -8 67.43 13.44
-10 -1 -7 293.97 18.3
-1 -10 7 289.5 20.09
-10 -1 -7 346.81 19.47
1 -10 -7 293.94 21.18
-1 -10 6 157.89 16.01
-10 -1 -6 154.51 14.23
1 -10 -6 156.71 17.3
-10 -1 -6 138.21 13.51
-1 -10 5 74.35 14.1
-10 -1 -5 64.87 11.39
-10 -1 -5 68.06 11.71
1 -10 -5 82.16 15.27
-10 -1 -4 33.74 10.55
1 -10 -4 4.06 13.9
-1 -10 4 22.57 13.03
-10 -1 -4 13.38 10.34
1 -10 -3 147.47 17.5
-10 -1 -3 188.86 13.38
-1 -10 3 159.42 15.78
1 -10 -3 157.81 17.25
-1 -10 2 364.41 21.14
1 -10 -2 358.77 22.54
1 -10 -2 301.32 21.22
-10 -1 -2 356.23 17.71
-1 -10 1 638.26 29.65
1 -10 -1 624.39 30.07
-10 -1 -1 665.88 26.3
-1 -10 1 561.64 29.02
1 -10 -1 628.4 30.53
-10 1 1 635.92 25.48
-10 1 0 85.7 9.98
1 -10 0 80.06 15.95
-1 -10 0 108.94 15.45
-10 -1 0 102.39 9.88
-1 -10 0 105.88 15.52
1 -10 0 89.76 15.43
1 -10 1 624.79 29.99
1 -10 1 622.28 30.47
-1 -10 -1 651.8 30.23
-10 1 -1 695.39 26.99
-1 -10 -1 595.33 30.08
1 -10 2 349.28 21.38
-1 -10 -2 329.67 20.93
-1 -10 -2 322.65 20.94
-10 1 -2 346.1 17.71
1 -10 3 180.53 16.71
-1 -10 -3 180.28 17
-10 1 -3 181.35 13.44
1 -10 4 20.23 13.41
-1 -10 -4 1.14 13.47
-10 1 -4 25.01 10.34
-1 -10 -5 57.25 14.97
-10 1 -5 66.32 11.53
1 -10 5 46.88 14.04
-10 1 -5 60.1 11.53
-1 10 6 152.02 15.29
-1 -10 -6 135.42 16.65
-10 1 -6 131.24 14.1
1 -10 6 170.84 16.82
-10 1 -6 147.55 14.26
-10 1 -7 276.81 18.74
-1 10 7 328.97 19.84
-1 -10 -7 277.29 21.18
-10 1 -7 306.3 18.83
1 -10 7 301.76 20.94
-10 1 -8 73.46 13.35
-1 -10 -8 58.19 15.17
-1 10 8 78.96 14.19
-10 1 -8 45.31 13.07
1 -10 8 38.8 15.1
-10 1 -9 243.77 18.14
-1 -10 -9 225.63 20.54
-1 10 9 221.51 18.34
-10 1 -9 243.24 18.64
-1 10 10 54.4 14.69
-1 -10 -10 89.05 17.32
-10 1 -10 62.97 15.11
-10 1 -10 103.66 16.07
1 10 -10 52.39 12.88
-1 10 11 99.68 16
-1 -10 -11 116.05 18.39
-10 1 -11 124.79 16.16
-10 1 -11 104.57 16.98
1 10 -11 93.7 13.87
1 10 -12 34 12.07
-1 10 12 18.64 15.14
-1 -10 -12 14.02 16.57
-10 1 -12 8.76 14.79
-10 1 -12 20.28 15.46
1 10 -12 -15.16 16.24
-1 10 13 53.23 15.94
1 10 -13 59.63 17.75
-1 -10 -13 67.77 18.07
-10 1 -13 37.19 17.08
-10 1 -13 60.83 15.99
-1 10 14 7.42 15.74
1 10 -14 26.14 17.11
-1 -10 -14 20.47 17.37
-10 1 -14 14.91 17.33
-10 1 -14 7.92 15.42
-1 10 15 110.04 18.45
-1 -10 -15 122.19 19.78
-10 1 -15 95.31 18.15
-10 1 -15 122.17 20.23
1 10 -15 108.66 20.01
-10 1 -16 51.7 17
-1 -10 -16 53.76 18.83
-10 1 -16 41.37 18.71
-10 1 -17 105.09 19.01
-1 -10 -17 106.77 20.62
-10 1 -17 95.75 21.25
-10 1 -18 76.47 19.3
-1 -10 -18 110.73 20.86
-10 1 -18 71 21.89
-10 1 -19 22.31 18.24
-1 -10 -19 29.45 20.03
-10 1 -19 21.24 20.51
-10 1 -20 21.25 18.44
-1 -10 -20 19.87 20.19
-10 1 -20 2.22 21.29
-10 1 -21 14.74 18.99
-1 -10 -21 12.62 20.78
-10 1 -21 -14.95 22.58
-10 1 -22 35.87 20.46
-1 -10 -22 32.81 21.07
-10 1 -22 4.82 23.1
-10 1 -23 46.56 21.1
-10 1 -23 38.84 24.67
-10 1 -24 12.46 20.46
-10 1 -24 20.64 24.57
-10 1 -25 1.15 21.59
-10 1 -25 99.47 27.09
-10 -2 -25 17.51 21.58
-10 -2 -25 19.88 25.96
-10 -2 -24 4.54 20.87
-10 -2 -24 2.55 24.51
-10 -2 -23 54.17 21.15
-10 -2 -23 12.29 23.33
-10 -2 -22 1.08 19.65
-10 -2 -22 37.84 23.51
-2 10 -22 31.4 25.36
-10 -2 -21 36.77 19.06
-10 -2 -21 25.01 21.79
-2 10 -21 62.26 24.97
-10 -2 -20 34.64 19.02
-2 10 -20 21.15 23.39
-10 -2 -20 -8.7 21.16
-10 -2 -19 8.87 18.49
2 -10 -19 -3.5 11.49
-2 10 -19 -15 22.09
-10 -2 -19 10.38 20.07
-10 -2 -18 40 18.7
2 10 18 32.12 17.09
-2 10 -18 44.85 22.45
-10 -2 -18 71.16 20.93
-10 -2 -17 44.05 18.08
2 10 17 92.31 18.16
2 -10 -17 86.53 17.08
-2 10 -17 23.2 16.6
-10 -2 -17 78.21 20.66
-2 10 -17 53.46 21.92
-10 -2 -16 16.84 16.81
-2 10 -16 18.72 15.53
2 -10 -16 -13.6 17.13
-10 -2 -16 9.85 18.76
2 10 16 -4.72 15.91
-2 10 -16 23.01 20.28
-10 -2 -15 67.33 17.59
-2 10 -15 85.23 16.01
2 -10 -15 55.04 18.36
-10 -2 -15 109.89 19.83
2 10 15 115.92 17.48
-2 10 -15 99.95 20.99
-10 -2 -14 54.59 16.71
-2 10 -14 60.06 15.47
2 -10 -14 53.63 18.01
-10 -2 -14 47.56 17.56
2 10 14 26.67 15.46
-2 10 -14 48.82 19.14
-10 -2 -13 102.4 17.68
-2 10 -13 58.67 15.39
2 -10 -13 71.87 17.84
-10 -2 -13 80.77 18.1
2 10 13 88.33 16.46
-2 10 -13 86.01 19.61
-2 10 -12 55.21 14.88
2 -10 -12 67.24 17.16
-10 -2 -12 36.77 15.83
2 10 12 45.15 15.59
-10 -2 -12 60.41 16.27
-2 10 -11 37.93 14.54
2 -10 -11 70.51 16.9
-10 -2 -11 49.13 15.5
2 10 11 84.62 15.69
-10 -2 -11 63.09 15.63
-2 10 -10 13.14 13.97
2 -10 -10 10.66 15.35
-10 -2 -10 32.31 14.29
2 10 10 32.68 14.69
-10 -2 -10 32.79 14.52
-10 -2 -9 75.18 14.81
-2 10 -9 83.77 13.91
2 -10 -9 74.09 15.74
-10 -2 -9 96.47 14.49
-2 -10 9 62.64 14.95
2 -10 -8 31.45 14.65
-2 -10 8 60.94 14.08
-10 -2 -8 30.12 13.42
-10 -2 -8 50.02 13.11
2 -10 -7 40.57 14.68
-2 -10 7 38.2 13.28
-10 -2 -7 15.44 12.23
-10 -2 -7 39.97 12.09
2 -10 -6 10.27 14.12
-2 -10 6 8.19 12.78
-10 -2 -6 -3.08 11.12
-10 -2 -5 324.82 17.87
2 -10 -5 258.79 20.57
-2 -10 5 285 18.97
-10 -2 -4 86.92 11.72
2 -10 -4 86.57 15.68
-2 -10 4 68.54 13.59
2 -10 -3 261.36 20.69
-10 -2 -3 274.26 15.95
-2 -10 3 266.59 18.12
2 -10 -3 267.49 20.09
2 -10 -2 229.24 19.3
-10 -2 -2 241.89 14.23
2 -10 -2 189.19 18.04
-2 -10 2 207.65 17.27
2 -10 -1 239.82 19.76
-10 2 1 287.86 14.88
2 -10 -1 303.54 21.05
-2 -10 1 273.59 18.55
-10 -2 -1 308.1 15.5
-2 -10 1 270.98 18.76
2 -10 0 81.11 16.06
-2 -10 0 87.99 14.68
-10 2 0 84.95 10.32
-2 -10 0 89.38 14.96
2 -10 0 110.76 15.45
2 -10 1 275.11 19.94
-2 -10 -1 277.63 19.25
-2 -10 -1 276.41 18.83
2 -10 1 275.34 20
-10 2 -1 283.33 15.68
2 -10 2 209.5 18.05
-2 -10 -2 189.16 17.14
-10 2 -2 208.78 13.91
-2 -10 -2 207.7 17.13
2 -10 3 263.3 19.27
-2 -10 -3 242.87 18.78
-10 2 -3 244.88 15.56
-10 2 -4 83.09 11.93
-2 -10 -4 70.64 14.93
10 -2 -4 64.68 11.7
2 -10 4 77.13 14.95
-2 10 5 284 17.73
-2 -10 -5 279.9 20.09
2 -10 5 324.79 20.64
-10 2 -5 262.75 17.13
-2 10 6 -7.34 11.48
-2 -10 -6 18.39 14.1
-10 2 -6 -7.17 11.16
-10 2 -6 -5.57 11.93
2 -10 6 16.59 14.27
-2 10 7 45.7 12.74
-2 -10 -7 31.63 14.79
-10 2 -7 39.73 11.64
-10 2 -7 24.87 12.43
2 -10 7 25.82 14.84
-10 2 -8 64.35 12.86
-2 -10 -8 41.43 15.48
-10 2 -8 43.94 13.97
2 -10 8 40.49 15.32
-2 10 8 28.44 12.9
-10 2 -9 86.91 14.57
-2 -10 -9 72.33 16.74
-10 2 -9 79.92 15.3
-2 10 9 46.07 14.11
-10 2 -10 21.52 14.01
-2 -10 -10 31.53 16.5
-10 2 -10 27.78 15.07
-2 10 10 56.13 14.13
-2 10 11 75.87 15.47
-2 -10 -11 47.02 17.24
-10 2 -11 75.77 15.78
2 10 -11 59.62 12.7
-10 2 -11 63.16 16.42
2 10 -11 66.97 14.89
-2 10 12 45.81 14.91
-2 -10 -12 66.01 17.74
-10 2 -12 50.17 15.44
-10 2 -12 50.17 17
2 10 -12 45.92 15.3
-10 2 -13 79.01 16.78
-2 10 13 72.99 16.9
-2 -10 -13 71.48 18.28
-10 2 -13 31.79 16.8
-10 2 -14 38.74 16.92
-2 -10 -14 40.85 18.15
-2 10 14 53.36 17.12
-10 2 -14 25.91 17.87
-10 2 -15 93.95 17.4
-2 -10 -15 105.07 19.35
-10 2 -15 87.86 19.51
-10 2 -16 0.94 18.31
-2 -10 -16 31.57 18.63
-10 2 -16 12.14 16.24
-10 2 -17 32.49 20.3
-2 -10 -17 47.63 20.02
-10 2 -17 71.92 17.65
-10 2 -18 21.67 20.62
-2 -10 -18 85.32 20.42
-10 2 -18 50.49 18.66
-10 2 -19 7.56 21.19
-2 -10 -19 43.97 20.31
-10 2 -19 24.2 17.78
-10 2 -20 20.25 21.91
-2 -10 -20 30.78 20.63
-10 2 -20 18.02 18.43
-10 2 -21 66.75 23.67
-2 -10 -21 48.39 22.18
-10 2 -21 75.65 20.16
-10 2 -22 -20.62 23.92
-2 -10 -22 18.2 21.34
-10 2 -22 16.15 20.15
-10 2 -23 57.8 24.55
-2 -10 -23 31.1 23.17
-10 2 -23 30.21 20.76
-10 2 -24 41.24 21.73
-10 2 -24 14.38 24.97
-2 -10 -24 63.35 23.01
-10 2 -25 5.38 25.42
-10 2 -25 1.16 21.8
-10 -3 -25 23.67 25.57
-3 10 -25 -22.79 27.91
-10 -3 -25 -8.3 21.24
-10 -3 -24 -23.02 25.35
-3 10 -24 28.81 27.93
-10 -3 -24 -17.4 21.27
-10 -3 -23 -8.66 24.23
-3 10 -23 38.32 26.96
-10 -3 -23 15.81 21.18
-10 -3 -22 25.07 23.55
-3 10 -22 24.67 25.38
-10 -3 -22 12.01 19.55
-10 -3 -21 45.65 22.5
-3 10 -21 20.12 24.35
-10 -3 -21 40.13 19.82
-10 -3 -20 22.87 21.39
-10 -3 -20 18.4 18.83
-3 10 -20 5.75 22.89
-10 -3 -19 117.59 22.7
-10 -3 -19 111.15 20.08
-3 10 -19 133.23 25.4
3 10 19 118.61 19.49
-10 -3 -18 23.04 18.52
3 10 18 5.97 16.4
-10 -3 -18 42.67 20.37
-3 10 -18 44.53 17.88
-3 10 -18 40.66 22.38
-10 -3 -17 42.56 17.36
3 10 17 12.24 16.09
-10 -3 -17 13.16 19.48
-3 10 -17 10.54 16.48
-3 10 -17 5.13 21.78
3 -10 -17 24.41 12.07
-10 -3 -16 65 18.24
-10 -3 -16 65.87 19.94
3 10 16 56.38 16.85
-3 10 -16 38.56 21.06
-3 10 -16 64.54 16.99
-10 -3 -15 46.09 16.82
-10 -3 -15 43.7 18.82
3 -10 -15 60.37 16.28
3 10 15 22.54 15.16
-3 10 -15 33.09 20.23
-3 10 -15 24.58 15.55
-10 -3 -14 92.25 17.52
-3 10 -14 104.78 16.84
-10 -3 -14 127.2 19.61
3 10 14 100.9 17.12
-3 10 -14 101.55 20.67
3 -10 -14 139.74 18.82
-3 10 -13 271.02 21.54
-10 -3 -13 262.16 23.03
3 10 13 325.93 22.15
-3 10 -13 291.59 25.15
3 -10 -13 292.7 23.21
-10 -3 -13 340.02 22.88
-10 -3 -12 171.73 18.1
-3 10 -12 115.16 17.02
3 -10 -12 138.51 18.92
3 10 12 141.34 17.68
-10 -3 -12 134.86 17.87
3 10 11 488.04 27.4
3 -10 -11 516.75 28.29
-10 -3 -11 555.79 27.83
-3 10 -11 537.54 27.37
-10 -3 -11 462.93 27.19
-3 10 -10 59.13 15.07
3 -10 -10 75.52 16.75
-10 -3 -10 95.97 15.59
-10 -3 -10 88.59 14.86
-3 10 -9 59.88 13.91
-10 -3 -9 93.06 14.74
-10 -3 -9 63.8 14.22
3 -10 -9 94.34 16.52
-3 -10 8 13.22 12.72
-10 -3 -8 11.3 12.64
3 -10 -8 5.02 14.54
-3 -10 7 68.64 13.69
-10 -3 -7 128.13 14.3
3 -10 -7 109.6 16.53
-10 -3 -6 50.86 11.57
-3 -10 6 59.86 13.25
3 -10 -6 41.67 15.26
-10 -3 -5 174.63 14.66
3 -10 -5 135.08 16.96
-3 -10 5 179.28 15.75
3 -10 -4 23.93 16.99
-3 -10 4 29.37 12.69
3 -10 -4 14.9 14.89
-10 -3 -4 40.02 10.99
-3 -10 3 587.82 27.91
-10 -3 -3 599.85 25.97
3 -10 -3 595.02 30.63
3 -10 -3 593.84 29.56
3 -10 -2 148.93 18.48
-3 -10 2 118.07 14.89
3 -10 -2 175.45 17.12
-10 -3 -2 144.14 12.2
-10 3 2 153.62 11.09
-3 -10 1 17.33 12.91
3 -10 -1 17.52 14.44
-10 -3 -1 18.65 8.9
-10 3 1 29.1 8.51
-3 -10 1 24.72 12.21
3 -10 -1 30.1 16.23
-10 3 0 307.01 16
-3 -10 0 302.06 19.51
3 -10 0 297.13 20.77
3 -10 0 284.4 21.56
-3 -10 0 260.11 18.21
-10 3 -1 13.82 9.09
3 -10 1 15.83 14.4
3 -10 1 36.24 15.77
-3 -10 -1 38.47 13.05
-3 -10 -1 12.03 13.01
-10 3 -2 155.42 12.66
-3 -10 -2 174.63 16.59
-3 -10 -2 160.95 15.84
3 -10 2 187.62 17.68
-10 3 -3 565.15 26.1
-3 -10 -3 595.48 28.61
-3 10 3 634.16 26.69
3 -10 3 592.33 29.15
-10 3 -4 35.46 10.83
3 -10 4 12.81 14.8
-3 -10 -4 32.01 14.11
-3 10 4 54.17 11.52
10 -3 -4 34 12.57
-10 3 -5 140.17 14.19
3 -10 5 157.32 18.1
-3 -10 -5 176.03 17.42
-3 10 5 175.6 14.48
10 -3 -5 177.28 15.29
-10 3 -6 39.9 12.27
3 -10 6 47.35 15.61
-3 -10 -6 51.91 14.51
-3 10 6 61.53 12.4
10 -3 -6 70.54 13.61
10 -3 -7 86.75 13.97
-3 10 7 137.65 14.11
-3 -10 -7 109.58 16.82
-10 3 -7 114.83 13.92
3 -10 7 93.11 16.45
-3 10 8 16.77 13.05
-3 -10 -8 -7.3 15.31
-10 3 -8 15.91 12.4
-10 3 -8 -4.88 13.24
-3 10 9 69.59 14.52
-3 -10 -9 87.06 17.01
-10 3 -9 52.75 13.96
-10 3 -9 86.37 15.57
-3 10 10 69.56 14.89
-10 3 -10 93.39 14.84
-10 3 -10 70.41 16.33
-3 -10 -10 90.38 17.82
-10 3 -11 493.37 27.23
-3 -10 -11 531.46 29.7
-10 3 -11 476.53 28.39
-3 10 11 553.16 27.54
-3 10 12 128.02 18.03
-10 3 -12 123.81 17.12
-10 3 -12 152.57 19.18
-3 -10 -12 145.99 19.46
-3 -10 -13 286.3 23.43
-10 3 -13 268.79 21.33
-10 3 -13 237.64 22.54
-10 3 -14 80.22 19.83
-3 -10 -14 127.43 19.71
-10 3 -14 99.27 17.76
-10 3 -15 39.03 18.07
-3 -10 -15 39.66 18.64
-10 3 -15 26.43 16.8
-10 3 -16 85.54 20.58
-3 -10 -16 39.31 19.04
-10 3 -16 92.08 18.43
-10 3 -17 -8.07 19.93
-3 -10 -17 37.87 19.71
-10 3 -17 28.41 17.28
-10 3 -18 -1.06 20.95
-10 3 -18 0.95 17.43
-3 -10 -18 37.23 19.9
-10 3 -19 73.74 22.39
-10 3 -19 92.34 19.9
-3 -10 -19 114.88 22.17
-10 3 -20 32.05 22.45
-10 3 -20 40.26 18.75
-3 -10 -20 0.98 20.57
-10 3 -21 35.73 23.54
-10 3 -21 22.82 19.29
-3 -10 -21 28.33 20.92
-10 3 -22 20.98 23.37
-10 3 -22 32.03 20.08
-3 -10 -22 -3.11 21.87
-10 3 -23 35.74 25.25
-10 3 -23 -14.32 19.77
-3 -10 -23 24.34 22.42
-10 3 -24 1.31 24.35
-10 3 -24 42.2 22.1
-3 -10 -24 6.49 23.16
-10 3 -25 -24.5 25.55
-3 -10 -25 2.2 23.35
-10 3 -25 18.8 22.22
-10 -4 -25 14.3 25.01
-4 10 -25 -20.6 28.74
-10 -4 -25 8.41 21.55
-10 -4 -24 63.42 25.97
-4 10 -24 50.98 28.27
-10 -4 -24 27.03 22.19
-10 -4 -23 23.41 24.57
-4 10 -23 18.39 27.17
-10 -4 -23 4.59 20.7
-10 -4 -22 -4.77 23.06
-4 10 -22 13.86 25.79
-10 -4 -22 8.94 20.26
-10 -4 -21 -3.45 23
-10 -4 -21 35.82 19.56
-4 10 -21 8.55 24.67
4 10 20 -1.85 17.44
-4 10 -20 34.75 18.45
-10 -4 -20 52.86 22.29
-10 -4 -20 49.44 19.77
-4 10 -20 34.27 24.24
4 10 19 -7.95 16.97
-10 -4 -19 30.47 18.59
-4 10 -19 18.91 18.07
-4 10 -19 21.88 22.77
-10 -4 -19 2.11 21.14
4 10 18 3.38 16.37
-10 -4 -18 62.38 19.13
-4 10 -18 29.85 17.87
-4 10 -18 33.03 22.75
-10 -4 -18 57.08 21.55
4 10 17 31.65 15.98
-4 10 -17 39.81 17.18
-4 10 -17 24.59 21.92
-10 -4 -17 6.63 19.61
-10 -4 -17 15.92 17.14
4 10 16 160.96 18.58
-10 -4 -16 146.96 21.67
4 -10 -16 48.12 12.01
-4 10 -16 145.07 23.53
-4 10 -16 175.7 19.59
-10 -4 -16 137.53 19.71
4 10 15 -10.52 15.31
-10 -4 -15 3.38 17.76
-4 10 -15 14.75 19.66
-4 10 -15 7.2 15.74
-10 -4 -15 9.48 16.37
4 10 14 86 16.48
-10 -4 -14 54.05 18.32
4 -10 -14 117.83 16.67
-4 10 -14 59.39 20.46
-4 10 -14 69.34 16.44
-10 -4 -14 63.61 16.81
-4 10 -13 194.81 23.31
4 10 13 236.72 20.07
4 -10 -13 217.11 20.97
-4 10 -13 215.65 20.08
-10 -4 -13 268.94 21.54
-10 -4 -13 218.2 21.18
4 10 12 49.96 16.01
4 -10 -12 39.58 16.73
-4 10 -12 58.59 15.79
-10 -4 -12 45.94 15.53
-10 -4 -12 50.03 16.22
-10 -4 -11 147.89 17.38
4 -10 -11 118.22 18.1
-4 10 -11 133.82 16.88
4 10 11 146.21 17.65
-4 10 -10 15.63 14.01
-10 -4 -10 32.63 14.66
4 -10 -10 22.45 16.05
-4 10 -9 79.12 15.14
4 -10 -9 84.84 17.01
-10 -4 -9 97.59 15.42
-4 10 -8 264.34 18.94
4 -10 -8 252.29 20.88
-10 -4 -8 276.92 18.69
4 -10 -7 26.56 15.43
-4 -10 7 16.06 12.39
-10 -4 -7 41.77 12.81
4 -10 -6 34.97 15.38
-10 -4 -6 52.99 12.17
-4 -10 6 58.32 12.79
4 -10 -5 423.97 24.71
-10 -4 -5 435.47 21.81
4 -10 -5 411.21 26.4
-4 -10 5 422.14 22.28
4 -10 -4 607.4 30.62
4 -10 -4 661.47 33.16
-10 -4 -4 649.82 28.13
-4 -10 4 644.42 29.11
-10 -4 -3 77.1 11.34
4 -10 -3 72.04 15.61
-4 -10 3 77.29 13.58
4 -10 -3 75.81 17.42
-10 4 2 177.34 12
4 -10 -2 165.9 18.01
-4 -10 2 181.22 16.17
4 -10 -2 180.62 19.22
-10 -4 -2 188.96 13.34
-4 -10 1 101.65 14.29
4 -10 -1 104.54 16.3
-10 4 1 120.37 10.59
-10 -4 -1 113.87 11.13
-4 -10 1 99.91 13.19
4 -10 -1 103.06 17.59
-10 4 0 758.25 31.06
-4 -10 0 760.63 33.6
4 -10 0 766.6 35.96
-4 -10 0 746.18 32.38
4 -10 0 828.65 35.35
4 -10 1 128.24 17.06
-4 -10 -1 130.93 15.55
-10 4 -1 148.42 12.59
-4 -10 -1 137.66 14.71
-10 4 -2 198.72 14.29
-4 -10 -2 184.44 17.28
4 -10 2 189.67 18.17
-4 10 2 252.16 14.18
4 -10 3 52.32 15.01
-10 4 -3 57.65 11.12
-4 -10 -3 68.94 14.19
10 -4 -3 44.94 13.12
-4 10 3 64.56 11.41
-10 4 -4 660.68 27.6
10 -4 -4 514.79 27.68
-4 -10 -4 625.54 29.36
4 -10 4 586.02 30.12
-4 10 4 611.08 26.44
-10 4 -5 456.47 22.18
-4 -10 -5 437.81 24.22
10 -4 -5 386.77 23.26
4 -10 5 413.81 24.93
-4 10 5 438.27 21.89
4 -10 6 48.88 16.6
10 -4 -6 50.03 14.17
-4 -10 -6 34.68 15.31
-4 10 6 21.62 12.14
-10 4 -6 37.18 12.03
-4 -10 -7 17.56 14.86
10 -4 -7 -1.59 13.97
-10 4 -7 23.05 12.06
-4 10 7 12.83 12.25
-4 -10 -8 213.18 19.95
-10 4 -8 219.33 17.67
-4 10 8 210.15 17.21
-4 10 9 63.15 14.45
-4 -10 -9 93.13 17.77
-10 4 -9 91.76 14.57
-10 4 -9 80.6 15.95
-4 10 10 13.16 14.46
-10 4 -10 4.01 13.28
-4 -10 -10 23.9 16.59
-10 4 -10 -11.59 15.48
-4 10 11 89.2 16.31
-4 -10 -11 148.46 19.34
-10 4 -11 116.58 16.3
-10 4 -11 86.87 18.08
-4 -10 -12 31.87 17.54
-10 4 -12 47.55 15.3
-10 4 -12 53.61 17.81
-4 -10 -13 198.26 22.21
-10 4 -13 216.92 19.89
-10 4 -13 232.04 22.45
-4 -10 -14 49.3 18.77
-10 4 -14 62.85 18.57
-10 4 -14 59.7 16.5
-10 4 -15 3.39 15.89
-4 -10 -15 26.83 19.14
-10 4 -15 8.43 18.45
-10 4 -16 152.82 19.41
-4 -10 -16 139.56 21.87
-10 4 -16 170.96 22.59
-10 4 -17 11.19 17.53
-4 -10 -17 19.42 19.57
-10 4 -17 -12.27 19.54
-10 4 -18 37.51 18.07
-4 -10 -18 58.13 20.8
-10 4 -18 42.96 21.01
-4 -10 -19 -19.64 20.55
-10 4 -19 -5.65 21.29
-10 4 -19 17.85 18.13
-4 -10 -20 27.24 21.05
-10 4 -20 -11.69 22.1
-10 4 -20 -8.13 18.84
-4 -10 -21 28 21.78
-10 4 -21 41.26 23.11
-10 4 -21 2.09 18.94
-4 -10 -22 23.36 22.3
-10 4 -22 -15.09 24.3
-10 4 -22 36.43 20.48
-4 -10 -23 -8.69 22.71
-10 4 -23 27.24 25.19
-10 4 -23 -20.95 20.24
-4 -10 -24 30.98 23.73
-10 4 -24 33.43 25.11
-10 4 -24 11.3 21.13
-4 -10 -25 15.76 24.1
-10 4 -25 -26.03 26.58
-10 4 -25 37.22 21.92
-5 10 -25 14.05 28.78
-5 10 -24 -9.63 28.11
-10 -5 -24 12.54 24.54
-10 -5 -24 17.95 21.68
-5 10 -23 29.5 27.35
-10 -5 -23 6.1 23.84
-10 -5 -23 22.19 21.12
-5 10 -22 33.46 26.19
-10 -5 -22 60.24 21.36
-10 -5 -22 49.62 24.44
-5 10 -21 49.02 26.44
-10 -5 -21 15.48 20.49
-10 -5 -21 15.96 22.97
-5 10 -21 32.13 19.48
-5 10 -20 45.71 19.47
-10 -5 -20 35.16 22.61
-5 10 -20 30.44 24.49
-10 -5 -20 -19.3 19.35
5 10 20 10.04 16.83
-10 -5 -19 30.55 21.61
5 10 19 43.7 16.98
-5 10 -19 47.43 23.89
-10 -5 -19 47.74 19.27
-5 10 -19 46.76 19.12
-10 -5 -18 89.49 21.97
5 10 18 41.97 16.95
-5 10 -18 76.1 23.73
-10 -5 -18 104.2 20.29
-5 10 -18 39.3 18.13
-10 -5 -17 37.39 20.58
-5 10 -17 18.53 16.92
5 10 17 21.86 15.66
-10 -5 -17 45.45 18.11
-5 10 -17 38.73 22.72
-5 10 -16 21.52 17
5 10 16 21.9 15.97
-10 -5 -16 0.93 17.37
-5 10 -16 39.05 21.82
-5 10 -15 53.78 16.78
5 10 15 79.88 16.7
-10 -5 -15 71.5 18.08
-5 10 -15 49.99 21.74
-5 10 -14 135.09 21.54
-10 -5 -14 119.08 18.78
5 10 14 130.62 17.54
-5 10 -14 126.68 18.03
5 -10 -14 91.38 17.45
-10 -5 -13 106.38 18.32
5 10 13 77.22 16.82
-5 10 -13 110.43 17.23
5 -10 -13 78.19 17.06
-10 -5 -12 99.08 17.67
5 10 12 113.03 17.16
5 -10 -12 131.47 18.37
-5 10 -12 110.31 17.15
-5 10 -11 254.58 20.18
-10 -5 -11 215.2 20.62
5 -10 -11 294.17 22.02
-5 10 -10 294.68 21.06
5 -10 -10 315.21 22.41
-10 -5 -10 297.33 21.55
-5 10 -9 199.67 18.25
5 -10 -9 202.99 19.81
-10 -5 -9 199.87 17.89
-5 10 -8 81.85 15.17
-10 -5 -8 113.05 15.56
5 -10 -8 94.63 17.23
-10 -5 -7 57.14 13.57
5 -10 -7 49.32 15.85
-10 -5 -6 351.96 20.69
5 -10 -6 371.61 23.34
-10 -5 -5 141.89 14.02
5 -10 -5 117.17 19.59
-5 -10 5 147.93 14.61
5 -10 -5 124.05 17.28
-10 -5 -4 354.58 19.05
5 -10 -4 329.33 22.09
-5 -10 4 304.15 19.12
5 -10 -4 342.04 24.23
5 -10 -3 247.66 21.97
-10 -5 -3 278.3 16.53
5 -10 -3 266.27 20.65
-5 -10 3 283.09 18.04
5 -10 -2 184.3 20.02
5 -10 -2 214.9 18.81
-5 -10 2 203.11 16.2
-10 5 2 174.67 12.38
-5 -10 1 139.7 15.03
5 -10 -1 117.5 16.79
-10 5 1 128.29 11.35
5 -10 -1 81.7 18.34
-5 10 0 9.12 4.16
-5 -10 0 42.16 13.12
5 -10 0 40.51 15.05
-10 5 0 30.17 9.45
5 -10 0 19.47 16.11
5 -10 1 142.4 16.63
-10 5 -1 124.17 11.35
-5 -10 -1 118.44 14.13
5 -10 2 217.81 18.67
-10 5 -2 198.64 13.9
-5 10 2 100.83 9.24
-5 -10 -2 203.4 16.6
5 -10 3 239.16 20.57
-10 5 -3 253.28 16.25
-5 -10 -3 252.84 19.22
10 -5 -3 221.3 18.6
-5 10 3 290.31 14.97
5 -10 4 304.68 22.95
-5 -10 -4 343.57 21.88
-5 10 4 340.51 18.15
10 -5 -4 303.03 21.19
-10 5 -4 368.88 19.12
5 -10 5 93.43 18.16
-10 5 -5 117.43 14.07
-5 -10 -5 125.38 16.5
10 -5 -5 133.27 16.96
-5 10 5 114.09 13.09
-10 5 -6 396.19 21.63
-5 -10 -6 396.03 23.5
10 -5 -6 350.16 23.13
5 -10 6 343.95 24.03
-5 10 6 403.25 21.14
10 -5 -7 34.25 15.12
-5 -10 -7 58.66 15.97
-5 10 7 37.72 12.96
-10 5 -7 58.22 12.93
10 -5 -8 74.74 15.8
-10 5 -8 113.18 14.91
-5 10 8 106.16 15.04
-5 -10 -8 104.97 17.58
-10 5 -9 203.15 17.55
-5 -10 -9 224.52 20.41
-5 10 9 199.83 18.16
-10 5 -10 295.95 23.07
-5 -10 -10 322.3 23.75
-10 5 -10 307.47 21.37
-10 5 -11 263.15 20.04
-10 5 -11 252.31 22.06
-5 -10 -11 230.47 21.93
-10 5 -12 119.68 17
-10 5 -12 120.77 19.76
-5 -10 -12 118.68 19.87
-10 5 -13 77.94 16.48
-10 5 -13 88.86 19.64
-5 -10 -13 113.14 19.96
-10 5 -14 137.31 18.52
-10 5 -14 121.06 21.37
-5 -10 -14 157.59 21.46
-10 5 -15 51.93 16.64
-10 5 -15 72.11 20.43
-5 -10 -15 58.57 19.91
-5 -10 -16 54.19 19.87
-10 5 -16 8.11 20.05
-10 5 -16 16.87 16.83
-5 -10 -17 28.48 19.94
-10 5 -17 11.62 20.44
-10 5 -17 10.26 17.08
-5 -10 -18 44.07 20.37
-10 5 -18 45.02 21.93
-10 5 -18 51.8 18.78
-5 -10 -19 80.67 21.46
-10 5 -19 43.6 22.74
-10 5 -19 30.28 18.45
-5 -10 -20 67.4 22.19
-10 5 -20 22.85 22.56
-10 5 -20 13.5 18.86
-10 5 -21 27.27 23.67
-10 5 -21 62.85 21.2
-5 -10 -21 7.44 21.78
-10 5 -22 16.66 24.47
-10 5 -22 49.77 20.46
-5 -10 -22 55.55 23.67
-10 5 -23 13.23 25
-10 5 -23 -8.9 20.46
-5 -10 -23 -23.34 23.1
-10 5 -24 29.93 26.12
-10 5 -24 3.41 21.11
-5 -10 -24 26.07 23.53
-5 -10 -25 -10.37 24.44
-6 10 -24 15.5 28.27
-10 -6 -23 -7.09 21.15
-6 10 -23 20.46 27.93
-10 -6 -22 47.4 21.26
-6 10 -22 56.16 21.2
-6 10 -22 36.96 26.52
-10 -6 -21 -1.13 20.46
-6 10 -21 2.58 25.55
-6 10 -21 7.07 19.89
6 10 20 44.1 17.39
-6 10 -20 76.46 25.85
-6 10 -20 57.23 19.93
-6 10 -19 21.26 18.62
6 10 19 51.07 17.37
-6 10 -19 61.95 24.46
-10 -6 -19 39.42 19.95
-6 10 -18 7.59 17.92
6 10 18 -5.87 15.58
-6 10 -18 23.41 22.9
-10 -6 -18 25.73 18.56
-6 10 -17 46.82 17.92
-6 10 -17 41.03 23.39
6 10 17 54.32 16.58
-10 -6 -17 41.65 18.8
-6 10 -16 -15.26 20.7
6 10 16 -6.27 15.61
-10 -6 -16 4.78 17.21
-6 10 -16 3.57 16.39
-6 10 -15 7.38 20.71
6 10 15 11.39 15.6
-10 -6 -15 -3.67 16.85
-6 10 -15 -18.04 16.06
-6 10 -14 94.49 22.45
6 10 14 117.85 17.53
-6 10 -14 119.55 18.17
-10 -6 -14 91.67 18.82
6 10 13 36.95 16.01
-6 10 -13 33.3 16.06
-10 -6 -13 58.2 17.52
-6 10 -12 95.27 17.05
-10 -6 -12 112.01 18.25
6 -10 -12 143.25 18.8
-6 10 -11 64.99 15.97
-10 -6 -11 59.11 16.51
6 -10 -11 82.35 18.07
-6 10 -10 24.15 14.82
-10 -6 -10 44.52 15.67
6 -10 -10 25.97 16.47
-6 10 -9 69.32 15.03
-10 -6 -9 74.81 15.76
6 -10 -9 58.94 16.89
-6 10 -8 69.64 15.12
-10 -6 -8 57 14.38
6 -10 -8 51.99 16.83
-6 10 -7 18.59 13.56
-10 -6 -7 46.21 13.6
6 -10 -7 43.02 15.96
-10 -6 -6 79.4 13.84
6 -10 -6 79.1 16.57
6 -10 -6 65.63 18.7
6 -10 -5 213.47 19.27
6 -10 -5 195.77 21.43
6 -10 -4 52.73 15.92
6 -10 -4 15.33 17.45
6 -10 -3 25.3 15.24
-6 -10 3 7.35 11.52
6 -10 -3 19.55 17.59
-6 -10 2 73.53 13.59
6 -10 -2 57.51 18.07
6 -10 -2 100.03 16.55
6 -10 -1 140.57 19.82
-6 -10 1 191.02 15.87
6 -10 -1 186.9 18.27
6 -10 0 25.47 16.68
-6 -10 0 9.06 12.24
-10 6 0 -1.76 9.37
6 -10 0 20.61 15.48
-6 -10 -1 203.9 16.89
-10 6 -1 210.85 14.81
6 -10 1 209.81 19.17
-6 -10 -2 79.39 14.24
-10 6 -2 63.92 11.12
6 -10 2 55.36 15.69
10 -6 -3 -5.32 14.76
-6 -10 -3 10.3 13.86
10 -6 -3 12.07 13.7
-10 6 -3 20.41 11.14
6 -10 3 3.41 15.32
10 -6 -4 42.1 15.65
-6 -10 -4 40 14.37
-10 6 -4 43.65 11.84
10 -6 -4 26.07 14.38
6 -10 4 47.25 16.68
-6 -10 -5 185.67 17.97
10 -6 -5 180.31 18.92
-10 6 -5 175.84 15.28
6 -10 5 178.41 19.58
-10 6 -6 81.69 13.59
10 -6 -6 73.7 16.27
-6 -10 -6 87.52 16.59
-10 6 -7 24.91 13.05
10 -6 -7 42.99 16.69
-6 -10 -7 41.65 15.84
-10 6 -8 43.9 13.51
10 -6 -8 16.75 16.27
-6 -10 -8 47.44 16.83
-6 -10 -9 57.95 17.2
-10 6 -9 54.4 14.85
-10 6 -10 26.19 14.54
-6 -10 -10 48.31 17.6
-10 6 -11 52.75 15.68
-10 6 -11 26.91 17.78
-6 -10 -11 76.24 18.56
-10 6 -12 118 17.67
-10 6 -12 104 20.65
-6 -10 -12 104.46 19.47
-10 6 -13 44.91 15.99
-10 6 -13 36.73 19.24
-6 -10 -13 35.59 18.36
-10 6 -14 101.45 17.96
-10 6 -14 123.04 21.76
-6 -10 -14 118.88 20.41
-10 6 -15 21.06 19.76
-10 6 -15 6.9 16.01
-10 6 -16 18.9 20.5
-10 6 -16 -0.9 16.32
-10 6 -17 52.44 21.85
-10 6 -17 79.56 18.54
-10 6 -18 46.49 22.73
-10 6 -18 -0.97 17.49
-10 6 -19 50.46 22.87
-10 6 -19 48.04 18.83
-10 6 -20 26.78 22.78
-10 6 -20 27.51 19.13
-10 6 -21 40.82 24.81
-10 6 -21 31.44 20.23
-10 6 -22 21.08 20.74
-10 6 -22 26.2 25
-10 6 -23 20.23 25.92
-10 6 -23 21.34 21.01
-6 -10 -23 15.97 23.19
-10 6 -24 62.36 27.36
-6 -10 -24 16.25 23.81
-10 6 -24 4.6 21.12
-7 10 -23 58.38 22.19
-7 10 -23 -6.95 27.74
-7 10 -22 34.41 20.86
-7 10 -22 5.41 26.56
-7 10 -21 38.67 20.86
-7 10 -21 31.69 26.22
-7 10 -20 21.4 19.2
-7 10 -20 16.75 24.79
-7 10 -19 37.42 24.45
-7 10 -19 12.96 18.78
-7 10 -18 31.4 19.07
7 10 18 31.84 16.38
-7 10 -18 65.08 24.76
-10 -7 -18 29.33 18.7
-7 10 -17 39.03 18.43
7 10 17 35.7 16.14
-7 10 -17 42.15 23.12
-10 -7 -17 34.45 19.81
-7 10 -16 45.08 17.65
7 10 16 46.45 16.15
-7 10 -16 43.89 22.01
-10 -7 -16 52.82 19.03
7 10 15 28.77 16.07
-7 10 -15 49.05 22.22
-10 -7 -15 75.36 18.74
-7 10 -15 63.37 17.6
7 10 14 30.6 16.21
-7 10 -14 17.86 20.76
-10 -7 -14 15.38 16.85
-7 10 -14 0.87 15.74
-10 -7 -13 26.03 16.73
-7 10 -13 55.79 17.13
7 10 13 43.81 16.52
-7 10 -12 48.57 16.26
-10 -7 -12 64.73 17.19
-7 10 -11 103.15 17.16
7 -10 -11 142.93 18.63
-7 10 -10 22.86 15.37
7 -10 -10 74.97 17.49
-7 10 -9 79.78 15.98
7 -10 -9 120.25 18.42
-7 10 -8 242.34 19.78
7 -10 -8 243.03 21.29
-7 10 -7 281.78 20.38
7 -10 -7 310.21 22.21
7 -10 -7 274.22 24.57
-7 10 -6 61.9 14.42
7 -10 -6 67.77 19.38
7 -10 -6 59.34 16.87
7 -10 -5 56.48 18.73
7 -10 -5 39.84 16.09
7 -10 -4 3.94 17.44
7 -10 -4 23.52 15.29
7 -10 -3 55.71 18.45
7 -10 -3 57.84 16.16
7 -10 -2 -13.9 17.51
7 -10 -2 3.29 15.63
-7 -10 1 100.5 13.85
7 -10 -1 95.26 19.24
7 -10 -1 155.59 17.85
7 -10 0 218.72 19.89
-7 -10 0 212.57 17
-10 7 -1 85.27 12.02
7 -10 1 54.01 17.21
-7 -10 -1 74.31 14.04
7 -10 2 17.43 16.47
-7 -10 -2 -2.76 13.3
-10 7 -2 -1.05 10.85
10 -7 -2 -6.29 14.83
-7 -10 -3 58.84 14.49
10 -7 -3 63.35 16.08
-10 7 -3 70.91 12.21
7 -10 3 68.13 17.6
10 -7 -3 73.33 15.52
10 -7 -4 9.95 14.77
10 -7 -4 30.98 16.23
-7 -10 -4 18.8 14.29
7 -10 4 25.31 16.39
-10 7 -4 17.55 11.62
-10 7 -5 72.29 13.17
10 -7 -5 83.84 17.89
-7 -10 -5 77.73 16.31
-10 7 -6 93.17 14.63
10 -7 -6 101.99 18.05
-7 -10 -6 91.3 17.28
-7 -10 -7 263.96 21.45
-10 7 -7 312.58 19.96
10 -7 -7 304.62 23.5
-7 -10 -8 286.24 22.11
10 -7 -8 207.39 21.95
-10 7 -8 260.71 19.21
-7 -10 -9 121.48 18.66
10 -7 -9 101.89 19.42
-10 7 -9 139.36 16.77
-7 -10 -10 43.28 17.61
-10 7 -10 40.32 15.12
-10 7 -11 134.14 20.21
-10 7 -11 94.81 16.83
-7 -10 -11 125.6 19.51
-10 7 -12 18.34 15.37
-10 7 -12 37.84 18.93
-7 -10 -12 39.42 18.43
-10 7 -13 22.18 19.75
-10 7 -13 35.81 16.55
-10 7 -14 11.02 19.45
-10 7 -14 6.03 15.85
-10 7 -15 66.24 21.26
-10 7 -15 38.09 17.02
-10 7 -16 96.52 22.82
-10 7 -16 42.1 18.06
-10 7 -17 12.44 21.91
-10 7 -17 34.12 18.1
-10 7 -18 32.52 18.61
-10 7 -18 -4.69 22
-10 7 -19 27.53 18.67
-10 7 -19 21.8 22.62
-10 7 -20 21.36 19.6
-10 7 -20 -3.75 23.6
-10 7 -21 50.84 20.7
-10 7 -21 -16.79 24.04
-10 7 -22 22.6 20.94
-10 7 -22 -18.86 25.63
-10 7 -23 -5.75 21.13
-10 7 -23 49.59 26.67
-10 7 -24 -16.3 21.99
-8 10 -23 33.07 21.96
-8 10 -23 1.42 27.84
-8 10 -22 13.31 20.78
-8 10 -22 45.64 27.49
-8 10 -21 -14.03 20.1
-8 10 -21 51.24 27.11
-8 10 -20 -9.24 25
-8 10 -20 16.82 20.18
-8 10 -19 70.12 25.13
-8 10 -19 25.68 19.26
-8 10 -18 19.79 24.05
-8 10 -18 48.5 19.31
8 10 17 66.71 16.91
-8 10 -17 46.92 24.15
-8 10 -17 29.56 18.78
8 10 16 71.3 16.91
-8 10 -16 71.83 24.24
-8 10 -16 73.15 19
-8 10 -15 21.26 16.76
-8 10 -15 -22.46 21.87
8 10 15 -7.09 15.67
-8 10 -14 36.5 17.17
-8 10 -14 18.44 21.65
8 10 14 49.14 16.6
-8 10 -13 6.11 16.14
-8 10 -12 61.65 16.59
-8 10 -11 55.78 16.08
-8 10 -10 160.8 18.39
8 -10 -9 144.19 19.24
-8 10 -9 91.97 16.67
8 -10 -8 55.53 18.31
-8 10 -8 76.96 15.26
8 -10 -8 60.31 20.7
8 -10 -7 364.45 25.1
8 -10 -7 376.28 27.77
-8 10 -7 397.25 23.94
8 -10 -6 67.73 20.37
-8 10 -6 96.94 15.35
8 -10 -6 78.1 18.04
8 -10 -5 14 18.7
-8 10 -5 39.29 13.85
8 -10 -5 52.09 16.96
8 -10 -4 225.45 23.26
8 -10 -4 222.25 20.84
8 -10 -3 110.27 18.18
8 -10 -3 69.42 19.27
-10 -8 -3 75.81 14.14
8 -10 -2 64.8 19.06
8 -10 -2 107 17.6
8 -10 -1 6.29 17.99
8 -10 -1 13.12 16.46
8 -10 0 290.08 22.63
10 -8 -1 20.46 16.23
-8 -10 -1 26.86 13.71
8 -10 1 12.85 16.72
10 -8 -2 129.4 17.77
8 -10 2 97.3 18.81
-10 8 -2 114.96 13.66
-8 -10 -2 130.74 16.11
8 -10 3 44.23 17.2
10 -8 -3 92.28 17.18
-8 -10 -3 73.34 15.29
10 -8 -3 78.71 18.12
-10 8 -3 57.77 12.73
-8 -10 -4 217.11 19.54
-10 8 -4 256.63 17.74
10 -8 -4 224.68 22.04
10 -8 -4 254.54 20.6
-8 -10 -5 49.77 16.09
10 -8 -5 48.06 18.02
-10 8 -5 44.43 13.09
-8 -10 -6 100.02 17.46
-10 8 -6 76.98 14.57
10 -8 -6 78.71 18.84
-10 8 -7 405.66 23.85
-8 -10 -7 411.57 25.64
10 -8 -7 404.21 27.46
10 -8 -8 78.49 18.8
-10 8 -8 86.68 15.16
-8 -10 -8 54.53 17.19
10 -8 -9 108.81 20.48
-8 -10 -9 83.49 17.96
-10 8 -9 82.94 16.13
-8 -10 -10 164.79 20.27
-10 8 -10 167.52 18.25
-10 8 -11 57.66 15.6
-10 8 -12 57 16.53
-10 8 -12 67.69 20.54
-10 8 -13 18.15 19.69
-10 8 -13 -3.41 15.66
-10 8 -14 17.84 20.17
-10 8 -14 7.13 16.19
-10 8 -15 15.19 20.66
-10 8 -15 5.52 16.79
-10 8 -16 23.88 22.06
-10 8 -16 30.18 17.79
-10 8 -17 25.65 22.01
-10 8 -17 38.81 18.96
-10 8 -18 71.77 24.1
-10 8 -18 46.02 19
-10 8 -19 16.59 19.21
-10 8 -19 10.01 22.77
-10 8 -20 32.09 19.93
-10 8 -20 7.74 24.12
-10 8 -21 18.9 20.42
-10 8 -21 -10.57 24.86
-10 8 -22 17.27 21.45
-10 8 -22 -2.73 25.92
-10 8 -23 15.24 21.39
-10 8 -23 -7.07 26.73
-9 10 -23 45.81 22.33
-9 10 -22 37.58 21.03
-9 10 -22 50.71 28.15
-9 10 -21 -8.89 20.47
-9 10 -21 -22 26.66
-9 10 -20 3.24 19.79
-9 10 -20 29.63 26
-9 10 -19 3.16 19.03
-9 10 -19 39.11 25.73
-9 10 -18 5.16 18.54
-9 10 -18 -7.6 24.01
-9 10 -17 29.43 18.83
-9 10 -17 19.75 23.99
-9 10 -16 53.05 19.14
-9 10 -16 72.54 23.74
-9 10 -15 76.92 18.32
9 10 15 84.67 17.25
-9 10 -15 109.73 24.13
-9 10 -14 29.05 22.11
-9 10 -14 17.56 17.01
9 10 14 48.53 17.07
-9 10 -13 1.79 16.37
-9 10 -12 6.98 15.73
-9 10 -11 47.7 16.26
9 -10 -10 45.16 21.65
-9 10 -10 50.92 15.92
9 -10 -9 96.29 22.14
-9 10 -9 114.17 17.39
9 -10 -8 153.29 23.23
-9 10 -8 214.8 19.36
9 -10 -7 217.87 21.4
9 -10 -7 224.13 24.09
-9 10 -7 216.11 19.12
9 -10 -6 180.23 20.85
-10 -9 -6 223.55 19.69
9 -10 -6 199.81 23.12
-9 10 -6 171.56 17.77
9 -10 -5 7.65 16.87
-10 -9 -5 30.4 15.08
9 -10 -5 65.03 19.96
-9 10 -5 30.24 14.03
9 -10 -4 19.54 16.82
-10 -9 -4 49.73 14.64
9 -10 -4 37.07 19.56
-9 10 -4 28.62 13.75
9 -10 -3 82.89 20.55
9 -10 -3 77.33 17.79
9 -10 -2 193.43 22.47
9 -10 -2 242.09 21.8
9 -10 -1 86.09 18.3
9 -10 0 72.5 18.43
10 -9 0 61.33 17.96
10 -9 -1 77.31 17.97
9 -10 1 72.99 17.97
10 -9 -2 250.2 21.45
9 -10 2 231.67 22.01
-10 9 -2 212.3 16.96
-9 -10 -3 70.81 15.16
10 -9 -3 49.49 17.52
-10 9 -3 70.54 13.49
10 -9 -3 60.89 19.25
-9 -10 -4 46.41 14.74
10 -9 -4 61.46 17.2
-10 9 -4 66.64 14.41
10 -9 -4 44.83 19.29
-9 -10 -5 27.97 15.95
10 -9 -5 22.47 17.34
-10 9 -5 15.94 13.29
10 -9 -5 58.7 19.5
-9 -10 -6 250.13 21.15
10 -9 -6 209.02 23.38
-10 9 -6 243.32 18.8
10 -9 -7 202.29 23.08
-9 -10 -7 269.93 21.54
-10 9 -7 247.61 19.41
10 -9 -8 229.24 24.28
-9 -10 -8 216.52 21.42
-10 9 -8 221.72 19.33
10 -9 -9 102.44 21.83
-9 -10 -9 129.1 19.5
-10 9 -9 89.78 16.48
-10 9 -10 69.11 15.91
10 -9 -10 46.65 20.56
-10 9 -11 95.98 17.54
-10 9 -12 19.58 16.03
-10 9 -13 22.19 16.22
-10 9 -13 22.29 20.57
-10 9 -14 25.6 16.91
-10 9 -14 16.44 21.53
-10 9 -15 63.71 18.22
-10 9 -15 41.93 22.94
-10 9 -16 60.69 18.79
-10 9 -16 78.74 23.6
-10 9 -17 14 17.59
-10 9 -17 23.18 22.86
-10 9 -18 20.5 18.81
-10 9 -18 54.91 24.59
-10 9 -19 -7.37 18.56
-10 9 -19 7.81 24.17
-10 9 -20 22.86 19.85
-10 9 -20 10.62 25.06
-10 9 -21 45.88 21.27
-10 9 -21 2.73 25.82
-10 9 -22 27.82 22.35
-10 9 -22 18.07 26.96
10 -10 0 31.34 18.27
10 -10 1 18.52 17.84
10 -10 -1 31.58 18.07
10 -10 -2 20.87 17.41
10 -10 -3 19.86 17.47
10 -10 -3 18.61 18.9
-10 10 -3 -5.98 12.86
10 -10 -4 -13.8 17.51
-10 10 -4 18.52 13.76
10 -10 -4 12.95 19.37
-10 -10 -5 106.88 17.26
10 -10 -5 115.87 21.94
-10 10 -5 95.62 15.73
10 -10 -5 120.38 19.55
-10 -10 -6 179.8 19.06
-10 10 -6 133.04 17.07
10 -10 -6 157.87 23.13
-10 -10 -7 66.02 17.81
-10 10 -7 106.04 16.56
10 -10 -7 115.02 22.52
-10 -10 -8 40.3 17.83
-10 10 -8 44.46 15.4
10 -10 -8 48.09 21.25
-10 -10 -9 14.35 17.66
-10 10 -9 15.31 15.48
10 -10 -9 49.64 21.17
-10 10 -10 -3.34 15.67
10 -10 -10 37.38 20.93
-10 10 -11 20.88 15.44
10 -10 -11 31.37 21.79
-10 10 -12 8.04 16.06
-10 10 -13 54.05 17.48
-10 10 -13 25.8 22.18
-10 10 -14 28.54 17.68
-10 10 -14 32.07 22.57
-10 10 -15 21.32 22.34
-10 10 -15 0.98 17.35
-10 10 -16 8.52 23.03
-10 10 -16 31.39 18.95
-10 10 -17 32.81 23.92
-10 10 -17 15.57 18.91
-10 10 -18 20.69 24.98
-10 10 -18 4.22 18.84
-10 10 -19 19.95 24.93
-10 10 -19 23.79 19.63
-10 10 -20 2.74 26.22
-10 10 -20 -8.86 20.34
-10 10 -21 27.35 21.97
-10 10 -21 20.98 27.25
-10 10 -22 22.16 21.8
0 -11 0 14.65 14.47
0 -11 0 9.67 14.15
0 -11 1 72.93 15.76
0 -11 -1 114.55 16.18
-11 0 -1 95.11 10.99
0 -11 1 92.37 15.84
0 -11 -1 110.07 16.48
0 -11 -2 0.63 14.99
-11 0 -2 -4.47 9.89
0 -11 2 14.94 13.88
0 -11 -2 4.34 14.96
0 -11 -3 111.33 16.43
0 -11 -3 108.51 17.25
-11 0 -3 89.42 12.31
0 -11 3 90.89 15.59
-11 0 -4 14.82 11.02
0 -11 4 41.65 14.59
0 -11 -4 17.14 15.19
0 -11 5 366.42 22.55
0 -11 -5 354.05 23.08
-11 0 -5 368.96 20.31
-11 0 -6 58.13 12.68
0 -11 6 16.04 14.46
-11 0 -6 61.03 12.4
0 -11 -6 75.04 16.01
0 -11 -7 174.09 18.58
0 -11 7 162.6 18.11
-11 0 -7 144.68 15.18
-11 0 -7 172.25 15.79
0 -11 -8 20.74 15.42
0 11 8 42.24 14.3
0 -11 8 46.96 16.37
-11 0 -8 28.15 13.4
-11 0 -8 18.55 12.9
0 -11 -9 24.13 16.12
0 11 9 49.71 14.18
-11 0 -9 9.1 13.59
-11 0 -9 41.76 14.21
0 -11 9 28.79 16.64
0 11 10 20.61 14.46
-11 0 -10 10.25 14.13
-11 0 -10 -4.46 14.38
0 -11 -10 -2.2 16.42
0 -11 -11 126.15 18.79
0 11 11 100.41 16.48
-11 0 -11 113.21 16.89
-11 0 -11 97.1 17.18
0 11 -11 110.45 15.4
0 -11 -12 51.45 18.02
0 11 12 42.49 15.55
-11 0 -12 41.5 15.85
-11 0 -12 68.62 17.37
0 11 -12 68.73 14.48
0 11 -13 46.25 18
0 -11 -13 44.95 18.06
0 11 13 40.94 15.94
-11 0 -13 14.24 15.88
-11 0 -13 25.01 17.41
0 11 -13 44.67 14.43
-11 0 -14 57.95 17.03
0 11 14 51.89 16.96
0 -11 -14 8.28 18.02
-11 0 -14 40.6 17.79
0 11 -14 69.42 19.02
-11 0 -15 4.32 16.84
0 11 15 26.36 16.26
0 -11 -15 24.79 18.99
-11 0 -15 64.85 19.12
0 11 -15 83.82 20.58
-11 0 -16 79.35 18.61
0 11 16 73.96 18.38
0 -11 -16 94.97 20.72
-11 0 -16 78.41 20.19
0 11 -16 71.36 21.6
0 -11 -17 -0.9 19.23
0 11 17 -36.34 17.94
-11 0 -17 -10.37 17.12
-11 0 -17 -35.89 20.03
0 -11 -18 3.72 19.43
-11 0 -18 32.56 18.27
-11 0 -18 43.7 20.82
0 -11 -19 6.64 20.43
-11 0 -19 -28.71 18.97
-11 0 -19 22.24 20.99
0 -11 -20 67.07 21.6
-11 0 -20 40.11 20.14
-11 0 -20 50.15 22.57
0 -11 -21 60.38 20.76
-11 0 -21 65.13 23.1
-11 0 -21 58.39 20.82
-11 0 -22 8.88 20.02
-11 0 -22 4.81 23.61
-11 0 -23 35.06 21.16
-11 0 -23 11.18 23.67
-11 0 -24 42.74 21.48
-11 0 -24 61.66 25.69
-11 0 -25 26.51 26.04
-11 -1 -25 -21.1 25.14
-11 -1 -24 20.87 21.19
-11 -1 -24 90.87 26.17
-11 -1 -23 43.11 21.16
-11 -1 -23 -19.82 23.87
-11 -1 -22 44.22 20.89
-11 -1 -22 -23.86 23.05
-11 -1 -21 59.27 20.75
-11 -1 -21 48.18 23.08
-11 -1 -20 54.58 20.35
-11 -1 -20 72.92 23.01
1 -11 -19 -12.12 18.88
-11 -1 -19 10.61 20.42
-1 11 -19 40.43 22.9
-11 -1 -19 52.05 19.51
-11 -1 -18 12.83 17.42
1 -11 -18 19.07 18.83
-11 -1 -18 21.25 19.86
-1 11 -18 15.55 22.38
1 11 18 5.49 17.45
-11 -1 -17 54.56 18.39
1 -11 -17 45.09 20.1
-11 -1 -17 77.6 21.17
-1 11 -17 76.98 22.16
1 11 17 35.62 17.74
-11 -1 -16 158.13 20.92
-11 -1 -16 133.71 21.11
1 -11 -16 94.59 20.88
-1 11 -16 138.51 23.32
1 11 16 78.71 18.13
-11 -1 -15 138.95 20.42
-1 11 -15 148.48 17.63
-11 -1 -15 101.01 20.5
1 -11 -15 145.01 20.91
-1 11 -15 114.49 21.8
1 11 15 115.03 19.1
-11 -1 -14 12.63 16.05
-1 11 -14 20.74 14.9
-11 -1 -14 13.05 16.86
1 -11 -14 -8.97 17.77
-1 11 -14 -20.94 19.26
1 11 14 32.77 15.9
-11 -1 -13 36.08 16.35
-1 11 -13 50.49 15.18
-11 -1 -13 27.68 16.65
1 -11 -13 55.58 18.56
-1 11 -13 42.02 18.87
1 11 13 32.05 15.35
-1 11 -12 107.54 16.22
-11 -1 -12 152.87 18.93
1 -11 -12 179.75 20.31
-11 -1 -12 147.66 18.15
1 11 12 189.67 18.29
-1 11 -11 9.35 13.72
-11 -1 -11 0.67 15.04
1 -11 -11 17.84 16.63
-11 -1 -11 -6.51 14.38
1 11 11 46.05 15.25
-1 11 -10 14.92 13.76
1 11 10 -1.97 14.54
1 -11 -10 -1.45 16.68
-11 -1 -10 4.4 14.97
-11 -1 -10 19.19 13.97
-11 -1 -9 203.94 19.01
-11 -1 -9 288.02 20.13
1 -11 -9 285.89 21.68
-1 -11 9 260.78 20.85
1 11 9 290.63 20.19
-1 -11 8 349.67 23.43
1 -11 -8 375.93 23.73
-11 -1 -8 345.19 21.42
-11 -1 -7 242.44 17.31
1 -11 -7 174.77 18.99
-1 -11 7 182.54 18.45
-11 -1 -6 5.38 11.75
1 -11 -6 19.64 14.95
-1 -11 6 33.76 14.33
-11 -1 -5 60.06 12.06
1 -11 -5 56.04 15.94
-1 -11 5 66.78 14.78
-11 -1 -4 240.32 16.31
1 -11 -4 229.29 20.61
-1 -11 4 261.18 19.04
1 -11 -4 229.96 19.85
1 -11 -3 26.98 16.2
-11 -1 -3 30.78 10.64
1 -11 -3 26.07 15.14
-1 -11 3 40.6 14.38
1 -11 -2 39.2 16.17
-11 -1 -2 40.82 10.17
-1 -11 2 42.71 14.4
1 -11 -2 40.6 15.11
-1 -11 1 329.24 22.14
1 -11 -1 383.18 23.99
-1 -11 1 366.76 22.81
1 -11 -1 371.23 22.88
1 -11 0 807.94 36.26
-1 -11 0 747.01 34.92
1 -11 0 760.03 35.25
-1 -11 0 791.8 35.26
1 -11 1 376.78 23.13
-1 -11 -1 347.79 22.6
1 -11 1 387.73 23.41
-1 -11 -1 360.99 22.31
-11 1 -1 385.24 18.79
-11 1 -2 40.91 10.16
-1 -11 -2 43.91 14.82
-1 -11 -2 48.72 15.27
1 -11 2 44.02 15.17
-1 -11 -3 41.48 14.97
1 -11 3 41.47 14.88
-1 -11 -3 33.34 15.42
-11 1 -3 39.17 10.73
1 -11 4 243.32 18.75
-11 1 -4 194.16 14.97
-1 -11 -4 231.86 19.24
-11 1 -4 209.8 15.24
1 -11 5 54.74 15.22
-11 1 -5 61.09 12.2
-11 1 -5 57.94 12.14
-1 -11 -5 66.83 16.08
1 -11 6 7.72 15.09
-11 1 -6 9.86 11.8
-1 11 6 3.28 12.93
-11 1 -6 10.9 11.59
-1 -11 -6 19.02 14.72
1 -11 7 180.76 18.75
-1 11 7 185.18 16.62
-11 1 -7 218.84 16.83
-1 -11 -7 146.47 18.52
-11 1 -7 159.67 16.2
1 -11 8 331.7 23.16
-1 11 8 348.84 20.92
-11 1 -8 332.93 20.86
-11 1 -8 280.56 20.3
-1 -11 -8 324.69 22.9
-11 1 -9 325.46 21.34
-1 -11 -9 333.53 23.18
-1 11 9 328.44 20.93
-11 1 -9 262.42 20.33
-11 1 -10 16.03 14.28
-1 -11 -10 -2.23 16.14
-11 1 -10 42.92 14.98
-1 11 10 13.29 14.42
-1 11 11 33.94 15.15
-1 -11 -11 39.91 17.75
-11 1 -11 29.25 14.93
-11 1 -11 40.89 15.98
1 11 -11 -1.81 12.29
1 11 -12 92.76 18.17
-1 -11 -12 135.66 20.1
-1 11 12 138.36 17.43
-11 1 -12 138.88 17.86
-11 1 -12 138.66 18.9
1 11 -12 133.8 15.32
-11 1 -13 75.46 17.11
-1 11 13 52.05 15.73
-1 -11 -13 67.21 18.81
1 11 -13 35.05 17.43
-11 1 -13 36.59 17.28
-1 -11 -14 21.82 18.12
-1 11 14 26.23 16.46
-11 1 -14 22.28 16.39
-11 1 -14 33.95 18.21
-1 -11 -15 134.61 20.78
-1 11 15 113.9 18.52
-11 1 -15 138.08 19.08
-11 1 -15 144.28 21.08
-1 -11 -16 129.5 22.14
-1 11 16 155.32 19.89
-11 1 -16 185.76 23.03
-11 1 -16 134.43 19.6
-1 -11 -17 42.78 19.32
-11 1 -17 6.89 20.02
-11 1 -17 24.25 17.3
-1 -11 -18 4.67 19.36
-11 1 -18 9.28 20.46
-11 1 -18 1.94 17.72
-1 -11 -19 13.44 20.45
-11 1 -19 4.31 21.05
-11 1 -19 16.08 18.01
-1 -11 -20 70.93 22.14
-11 1 -20 42.65 22.65
-11 1 -20 27.19 19.5
-1 -11 -21 52.38 22.77
-11 1 -21 19.78 22.19
-11 1 -21 35.98 20.58
-1 -11 -22 7.21 22.45
-11 1 -22 -18.25 23.42
-11 1 -22 24.54 20.45
-11 1 -23 -1.14 20.89
-11 1 -23 -13.89 23.96
-11 1 -24 6.98 20.95
-11 1 -24 14.28 24.95
-11 1 -25 37.29 26.09
-11 -2 -25 22.51 25.42
-11 -2 -24 -9.3 20.62
-11 -2 -24 28.16 24.91
-11 -2 -23 27.26 21.14
-11 -2 -23 80.23 25.12
-2 11 -22 17.05 26.12
-11 -2 -22 -10.01 19.85
-11 -2 -22 26.19 22.96
-2 11 -21 29.33 24.67
-11 -2 -21 -5.42 20.54
-11 -2 -21 5.73 22.51
-2 11 -20 43.35 24.39
-11 -2 -20 23.05 22.08
-11 -2 -20 19.99 19.33
-11 -2 -19 86.05 22.12
-2 11 -19 53.17 24.18
2 11 19 91.31 19.04
-11 -2 -19 85.53 19.95
-11 -2 -18 11.81 17.31
2 11 18 -1.8 16.92
-11 -2 -18 38.05 20.32
-2 11 -18 15.95 22.08
2 -11 -18 -2.68 14.68
-11 -2 -17 17.15 17.08
-11 -2 -17 47.88 20.56
2 -11 -17 -9.59 17.6
-2 11 -17 43.16 21.59
2 11 17 26.58 17.17
-11 -2 -16 49.77 18.42
-11 -2 -16 60.08 19.7
2 -11 -16 48.42 19.55
-2 11 -16 27.61 21.24
2 11 16 32.14 16.76
-2 11 -16 48.45 16.86
-11 -2 -15 65.56 18.01
-11 -2 -15 61.07 18.87
2 -11 -15 43.71 19.29
-2 11 -15 51.14 21.55
2 11 15 84.84 17.55
-2 11 -15 94.95 17.76
-11 -2 -14 28.92 16.43
-11 -2 -14 41.93 17.44
2 -11 -14 47.99 18.87
-2 11 -14 29.08 19.1
2 11 14 29.64 15.64
-2 11 -14 42 15.94
-11 -2 -13 133.63 18.64
-11 -2 -13 82.51 18.01
2 -11 -13 116.57 19.52
-2 11 -13 96.99 20.3
-2 11 -13 66.18 16.09
2 11 13 121.82 17.28
-11 -2 -12 80.22 18.15
2 11 12 107.31 17.22
2 -11 -12 100.14 18.61
-11 -2 -12 88.06 17.46
-2 11 -12 112.26 16.79
2 11 11 249.11 20.47
2 -11 -11 228.67 22.05
-11 -2 -11 285.37 21.21
-2 11 -11 248.86 19.89
2 11 10 30.4 15.35
2 -11 -10 31.56 16.93
-2 11 -10 55.31 15.5
-11 -2 -10 50.92 15.24
2 -11 -9 64.86 16.96
-11 -2 -9 51.96 14.81
-2 -11 9 76.24 16.1
-2 -11 8 50.17 15.83
2 -11 -8 49.4 16.2
-11 -2 -8 55.83 14.04
-2 -11 7 201.73 18.81
2 -11 -7 221.9 20.67
-11 -2 -7 256.47 17.9
2 -11 -6 47.38 16.12
-2 -11 6 54.68 14.52
-11 -2 -6 69.61 12.99
2 -11 -5 62.42 16.06
-2 -11 5 65.42 14.9
-11 -2 -5 49.96 12.35
-11 -2 -4 169.49 14.44
2 -11 -4 144.1 19.41
2 -11 -4 143.26 18.13
-2 -11 4 181.64 17.1
2 -11 -3 295.11 22.13
-2 -11 3 329.67 20.77
-11 -2 -3 319.04 18.14
2 -11 -3 309.13 22.76
-11 -2 -2 252.64 15.26
-2 -11 2 236.97 18.82
2 -11 -2 219.32 19.93
2 -11 -2 233.91 20.98
2 -11 -1 1133.55 46.98
-2 -11 1 1074.84 44.62
2 -11 -1 1088.64 45.82
-2 -11 1 1100.28 45.2
-11 2 0 16.33 9.65
2 -11 0 6.07 16.56
-2 -11 0 0.55 14.26
2 -11 0 17 15.13
-2 -11 0 29.29 14.6
2 -11 1 1123.63 46.78
-2 -11 -1 1158.6 46.71
-2 -11 -1 1091.41 45.86
2 -11 1 1141.76 47.56
-11 2 -1 1140.05 43.43
-2 -11 -2 264.14 19.84
-2 -11 -2 243.94 19.56
2 -11 2 228.97 19.71
-11 2 -2 265.99 15.92
-2 -11 -3 333.07 21.47
2 -11 3 354.21 22.25
-11 2 -3 307.83 18.13
-11 2 -4 205.84 15.01
-2 -11 -4 166.87 17.89
2 -11 4 176.13 18.54
-11 2 -5 84.75 12.12
-2 -11 -5 75.76 16.11
-2 11 5 65.96 13.26
2 -11 5 64.81 16.19
-2 11 6 88.06 14.05
-2 -11 -6 47 16.29
-11 2 -6 81.35 12.78
-11 2 -6 41.67 13.22
2 -11 6 61.09 16.24
2 -11 7 203.57 19.91
-2 11 7 235.86 17.64
-2 -11 -7 186.21 19.79
-11 2 -7 234.63 17
-11 2 -7 194.52 17.58
-11 2 -8 66.04 13.86
-2 -11 -8 66.08 17.17
-2 11 8 54.29 13.9
-11 2 -8 39.13 13.91
2 -11 8 25.76 16.75
-11 2 -9 58.71 14.36
-2 -11 -9 38.01 17.1
-2 11 9 63.27 14.49
-11 2 -9 64.23 14.96
-11 2 -10 59.56 15.27
-2 -11 -10 39.32 17.51
-2 11 10 48.29 15
-11 2 -10 31.46 15.52
-11 2 -11 256.35 19.97
-2 -11 -11 233.35 22.07
-2 11 11 263.39 20.46
-11 2 -11 221.86 20.75
-11 2 -12 114.66 17.55
-2 -11 -12 101.36 19.75
-11 2 -12 82.54 18.33
-2 11 12 90.88 16.98
-11 2 -13 82.39 17.43
-2 -11 -13 107.31 19.61
-11 2 -13 97.05 18.53
-2 11 13 84.06 17.45
-11 2 -14 52.22 17.14
-2 -11 -14 16.13 17.6
-11 2 -14 20.54 17.99
-2 11 14 -9.44 15.63
-11 2 -15 63.76 18.14
-2 -11 -15 50.82 19.36
-11 2 -15 56.45 19.3
-11 2 -16 41.37 17.32
-2 -11 -16 86.68 20.43
-11 2 -16 28.86 19.61
-11 2 -17 38.33 17.59
-2 -11 -17 34.38 20.06
-11 2 -17 26.08 19.9
-11 2 -18 21.28 18.08
-2 -11 -18 16.25 20.4
-11 2 -18 27.3 20.71
-11 2 -19 46.07 18.77
-2 -11 -19 76.63 22.09
-11 2 -19 62.49 22.37
-11 2 -20 32.07 19.23
-2 -11 -20 13.1 20.85
-11 2 -20 31.94 22.1
-11 2 -21 -3.21 19.34
-2 -11 -21 25.79 21.95
-11 2 -21 10.67 22.5
-11 2 -22 -6.65 20.39
-2 -11 -22 31.64 22.91
-11 2 -22 6.13 23.05
-11 2 -23 50.61 21.77
-2 -11 -23 58.02 23.58
-11 2 -23 55.77 25.47
-11 2 -24 4.69 21.16
-11 2 -24 10.52 26.05
-2 -11 -24 3.28 22.99
-11 -3 -25 27.65 26.26
-3 11 -24 -3.98 28.16
-11 -3 -24 10.25 25.15
-11 -3 -24 -3.57 21.08
-3 11 -23 -14.27 27.16
-11 -3 -23 18.67 25.22
-11 -3 -23 11.59 21.12
-3 11 -22 63.54 26.63
-11 -3 -22 5.98 23.53
-11 -3 -22 15.72 20.8
-3 11 -21 49.86 26.06
-11 -3 -21 36.66 22.8
-11 -3 -21 26.1 19.86
-3 11 -20 48.17 24.73
-11 -3 -20 73.85 20.48
-11 -3 -20 78.01 22.93
-11 -3 -19 80 19.93
-11 -3 -19 46.23 21.43
-3 11 -19 75.93 24.05
3 11 19 7.43 16.92
-11 -3 -18 16.9 17.86
-3 11 -18 13.94 17.09
-11 -3 -18 -17.05 19.98
3 11 18 -9.76 16.86
-3 11 -18 15.38 23.07
-3 11 -17 53.53 22.95
-11 -3 -17 69.09 18.39
-11 -3 -17 75.21 20.56
3 11 17 78.52 17.56
-3 11 -17 63.97 18.74
-11 -3 -16 106.41 20.08
3 11 16 69.89 17.3
-3 11 -16 66.28 17.51
-3 11 -16 67.39 22.48
-11 -3 -15 5.33 17.2
3 11 15 6.33 15.83
-3 11 -15 11.38 16.12
-3 11 -15 -17.75 20.1
3 -11 -15 43.08 17.48
-11 -3 -14 64.69 17.26
3 11 14 59.43 16.66
-3 11 -14 61.03 16.46
-3 11 -14 55.91 20.99
3 -11 -14 57.03 18.5
3 11 13 184.86 19.51
-11 -3 -13 202.84 20.14
-3 11 -13 158.52 19.13
3 -11 -13 216.89 21.8
-3 11 -12 402.75 24.92
3 11 12 423.54 25.54
3 -11 -12 354.14 25.99
-11 -3 -12 417.98 25.32
-3 11 -11 180.04 18.39
3 -11 -11 151.48 19.95
-11 -3 -11 189.89 18.83
3 11 11 178.69 19.07
3 -11 -10 79.79 17.91
-3 11 -10 83.17 16.32
-11 -3 -10 59.07 15.49
3 -11 -9 157.39 18.47
-3 11 -9 155.08 17.37
-11 -3 -9 153.38 16.97
-11 -3 -8 291.54 19.33
-3 -11 8 228.17 19.53
3 -11 -8 239.83 21.45
-11 -3 -7 52.87 13.09
-3 -11 7 43.13 15.05
3 -11 -7 64.97 16.7
-11 -3 -6 34.59 12.55
3 -11 -6 2.03 15.81
-3 -11 6 4.38 13.49
3 -11 -5 86.25 18.22
-11 -3 -5 88.06 12.93
3 -11 -5 109.41 17.27
-3 -11 5 111.12 15.35
-3 -11 4 362.62 21.69
3 -11 -4 357.92 24.95
3 -11 -4 335.02 23.36
-11 -3 -4 362.04 19.68
-11 -3 -3 237.72 15.09
3 -11 -3 208.47 20.81
-3 -11 3 207.88 17.86
3 -11 -3 201.72 19.45
3 -11 -2 66.04 17.7
3 -11 -2 28.06 16.04
-3 -11 2 37.54 13.6
-3 -11 1 157.7 15.79
3 -11 -1 156.67 19.02
3 -11 -1 151.76 18.69
-3 -11 1 171.85 16.71
-3 -11 0 560.87 29.1
3 -11 0 569.45 30.05
3 -11 0 568.81 31.29
-3 -11 0 604.47 28.71
-11 3 0 659.15 26.1
3 -11 1 188.2 18.58
-3 -11 -1 158.61 17.41
3 -11 1 137 18.78
-3 -11 -1 167.84 16.42
-11 3 -1 176.66 13.2
3 -11 2 29.33 15.3
-3 -11 -2 17.19 14.28
-11 3 -2 33.54 10.54
-3 -11 -2 34.55 14.51
-3 11 3 214.98 15.29
-11 3 -3 205.56 14.99
-3 -11 -3 194.11 17.96
3 -11 3 189.1 18.73
-11 3 -4 360.88 20.28
-3 -11 -4 398.83 23.52
3 -11 4 373.96 23.52
-3 11 4 350.74 20.22
-11 3 -5 97.29 13.33
-3 11 5 95.22 13.15
-3 -11 -5 92.52 16.66
3 -11 5 92.06 16.88
-11 3 -6 1.69 11.9
-3 11 6 13.88 12.19
-3 -11 -6 20.78 15.15
3 -11 6 -0.7 15.87
3 -11 7 4.27 16.42
-3 11 7 44.86 12.96
-3 -11 -7 61.2 16.81
-11 3 -7 41.36 12.93
-11 3 -7 26.46 13.67
-3 11 8 285.73 19.23
-3 -11 -8 280.83 21.8
-11 3 -8 254.29 19.15
-11 3 -8 250.19 19.71
-3 11 9 148.01 16.55
-3 -11 -9 148.86 19.46
-11 3 -9 155.12 16.4
-11 3 -9 121.24 17.73
-3 11 10 71.71 15.59
-3 -11 -10 112.54 18.67
-11 3 -10 97.43 15.52
-11 3 -10 78.04 16.88
-3 11 11 160.93 18.16
-11 3 -11 210.31 18.47
-11 3 -11 160.66 19.72
-3 -11 -11 168.7 21.02
-11 3 -12 385.46 26.57
-3 -11 -12 394.3 27.35
-3 11 12 391.96 24.74
-11 3 -12 426.08 25.33
-11 3 -13 206.02 20.03
-11 3 -13 194.4 22.16
-3 11 13 198 20.08
-3 -11 -13 193.98 22.22
-3 -11 -14 72.86 19.72
-11 3 -14 50.23 16.55
-11 3 -14 40.68 18.63
-3 -11 -15 -15.21 19.1
-11 3 -15 -0.89 16.09
-11 3 -15 15.8 18.67
-3 -11 -16 123.38 21.18
-11 3 -16 88.02 18.51
-11 3 -17 70.98 20.94
-3 -11 -17 86.11 21.45
-11 3 -17 69.14 18.7
-11 3 -18 -3.22 20.94
-3 -11 -18 8.76 19.78
-11 3 -18 5.83 17.72
-11 3 -19 40.24 21.98
-3 -11 -19 52.05 21.27
-11 3 -19 42.17 19
-11 3 -20 65.01 23.46
-3 -11 -20 74.7 21.9
-11 3 -20 107.82 21.09
-11 3 -21 12.05 23.41
-3 -11 -21 9.46 21.48
-11 3 -21 55.59 20.2
-11 3 -22 24.93 23.71
-3 -11 -22 65.54 23.9
-11 3 -22 5.5 20.02
-11 3 -23 23.18 24.37
-3 -11 -23 -16.42 23.14
-11 3 -23 -3.4 20.48
-11 3 -24 11.89 24.94
-3 -11 -24 50.27 24.77
-11 3 -24 42.12 21.78
-3 -11 -25 10.19 24.38
-4 11 -24 5.46 28.82
-11 -4 -24 22.86 21.82
-4 11 -23 18.52 27.84
-11 -4 -23 9.41 20.89
-4 11 -22 8.96 26.08
-11 -4 -22 -1.15 20.8
-4 11 -21 2.5 25.72
-11 -4 -21 -10.05 19.91
-4 11 -20 52.3 25.02
4 11 20 9.58 17.79
-11 -4 -20 3.25 19.5
-4 11 -19 51.87 23.8
-4 11 -19 42.22 18.85
4 11 19 3.68 17.43
-11 -4 -19 30.33 19.84
-4 11 -18 58.01 23.67
4 11 18 6.18 16.7
-11 -4 -18 31.25 18.88
-4 11 -18 53.62 18.31
-11 -4 -17 32.98 18.07
4 11 17 64.72 17.5
-4 11 -17 76.15 23.54
-4 11 -17 32.96 17.87
-4 11 -16 -0.86 17.05
-11 -4 -16 17.72 18.37
4 -11 -16 -39.4 16.81
-4 11 -16 12.71 22.15
4 11 16 1.65 15.97
-4 11 -15 27.99 17.47
-11 -4 -15 51.95 17.79
4 -11 -15 -4 17.29
-4 11 -15 19.45 21.14
4 11 15 38.14 16.63
-4 11 -14 43.21 16.7
-11 -4 -14 45.55 16.93
4 11 14 28.4 16.05
-4 11 -14 22.74 19.97
4 -11 -14 7.85 17.49
-11 -4 -13 42.04 16.12
4 -11 -13 26.94 18.03
4 11 13 56.11 16.3
-4 11 -13 30.04 15.94
-11 -4 -12 30.67 15.74
4 -11 -12 14.25 17.71
4 11 12 23.04 16.05
-4 11 -12 27.84 15.84
-11 -4 -11 21.02 14.97
4 -11 -11 40.21 17.06
4 11 11 44.97 16.65
-4 11 -11 30.71 15.3
-4 11 -10 0.74 14.79
4 -11 -10 13.03 16.54
-11 -4 -10 20.66 14.82
-4 11 -9 64.45 15.6
4 -11 -9 59.99 17.73
-11 -4 -9 96.33 15.17
4 -11 -8 5.62 16.16
-11 -4 -8 14.56 13.74
-11 -4 -7 36.17 12.93
4 -11 -7 26.39 16.25
-11 -4 -6 9.96 12.09
-4 -11 6 36.98 14.37
4 -11 -6 16.39 16.08
-4 -11 5 64.59 14.19
4 -11 -5 35.47 18.71
-11 -4 -5 68.5 12.59
4 -11 -5 32.41 15.99
4 -11 -4 105.26 19.65
-11 -4 -4 137.52 13.58
-4 -11 4 123.93 15.42
4 -11 -4 147.39 18.38
-4 -11 3 275.77 19.89
4 -11 -3 286.94 21.66
-11 -4 -3 327.35 18.23
4 -11 -3 313.82 23.36
4 -11 -2 29.41 17.11
4 -11 -2 56.25 16.61
-4 -11 2 46.76 13.85
4 -11 -1 72.14 17.81
-4 -11 1 84.27 14.99
4 -11 -1 92.11 16.65
-11 4 1 82.61 10.28
-4 -11 0 61.67 14.29
-11 4 0 66.22 10.54
4 -11 0 52.34 15.96
4 -11 0 46.44 16.93
-4 -11 -1 83.08 15.23
-11 4 -1 82.25 11.35
-4 -11 -1 71.57 13.82
4 -11 1 57.45 15.95
4 -11 2 22.81 15.78
-4 -11 -2 41.63 14.93
-4 -11 -2 36.15 13.72
-11 4 -2 49.28 10.94
-4 -11 -3 286.22 20.88
4 -11 3 262.57 21.88
-4 11 3 326.36 17.46
-11 4 -3 300.33 17.81
4 -11 4 113.94 17.6
11 -4 -4 116.15 15.12
-11 4 -4 96.77 12.87
-4 -11 -4 104.62 16.5
-4 11 4 133.5 13.41
-11 4 -5 36.67 12.26
-4 11 5 60.45 12.11
-4 -11 -5 54.98 15.72
4 -11 5 30.51 16.55
-11 4 -6 9.84 11.94
-4 11 6 14.81 12.3
-4 -11 -6 26.55 16.11
4 -11 6 0.72 15.68
-4 -11 -7 23.9 16.14
-11 4 -7 9.8 12.58
-4 11 7 17.37 12.79
4 -11 7 14.72 16.76
-4 -11 -8 12.43 16.43
-11 4 -8 19.93 13.74
-4 11 8 27.11 13.74
-11 4 -8 24.41 15.13
-4 -11 -9 88.53 18.28
-11 4 -9 87.61 15.08
-4 11 9 66.12 15
-11 4 -9 90.64 17.05
-4 -11 -10 22.47 17.32
-11 4 -10 -1.4 13.95
-4 11 10 5.22 14.65
-11 4 -10 4.49 15.94
-4 -11 -11 30.43 18.16
-11 4 -11 25.63 14.66
-4 11 11 30.46 15.84
-11 4 -11 30.72 17.32
-11 4 -12 18.41 15.06
-11 4 -12 35.91 17.91
-4 -11 -12 34.01 18.48
-11 4 -13 39.44 15.52
-11 4 -13 31.34 17.87
-4 -11 -13 24.81 18.62
-11 4 -14 45.42 16.64
-4 -11 -14 32.66 19.1
-11 4 -14 53.58 19.18
-11 4 -15 88.08 17.74
-11 4 -15 31.64 19.05
-4 -11 -15 31.86 19.32
-4 -11 -16 33.71 19.72
-11 4 -16 -6.51 16.3
-11 4 -16 10.03 19.39
-4 -11 -17 50.07 20.67
-11 4 -17 40.45 17.79
-11 4 -17 64.52 20.85
-4 -11 -18 0.99 19.92
-11 4 -18 4.97 17.67
-11 4 -18 6.58 21.13
-4 -11 -19 28.53 20.83
-11 4 -19 -4.09 18.19
-11 4 -19 11.48 21.6
-4 -11 -20 35.55 21.56
-11 4 -20 -1.04 18.29
-11 4 -20 48.59 22.82
-4 -11 -21 -4.28 22.22
-11 4 -21 14.01 19.8
-11 4 -21 -14.75 23.05
-4 -11 -22 1.09 22.93
-11 4 -22 38.58 20.4
-11 4 -22 12.72 24
-4 -11 -23 -2.23 23.44
-11 4 -23 16.95 20.86
-11 4 -23 -20.94 24.84
-4 -11 -24 7.95 23.71
-11 4 -24 17.39 21.09
-11 4 -24 -4.04 25.36
-5 11 -24 7.01 28.87
-11 -5 -23 -2.39 21.27
-5 11 -23 82.51 28.78
-11 -5 -22 -19.83 20.73
-5 11 -22 22.46 26.58
5 11 21 101.39 20.03
-5 11 -21 92.5 27.38
-11 -5 -21 22.72 20.63
-5 11 -20 59.29 20.47
-5 11 -20 89.45 26.96
-11 -5 -20 77.27 21.96
5 11 20 54.04 18.39
-5 11 -19 35.08 19.37
-5 11 -19 65.46 24.81
-11 -5 -19 22.48 19.22
5 11 19 34.61 17.75
-5 11 -18 40.72 18.96
5 11 18 1.76 16.15
-11 -5 -18 15.52 18.8
-5 11 -17 113.67 20.06
5 11 17 121.99 18.5
-5 11 -17 101.38 25.2
-11 -5 -17 114.04 20.72
-5 11 -16 -21.44 17.46
5 11 16 13.2 15.91
-5 11 -16 -19.76 21.51
-11 -5 -16 40.47 18.12
-5 11 -15 28.99 17.24
5 11 15 46.31 16.61
-5 11 -15 21.22 21.42
-11 -5 -15 42.63 17.93
5 -11 -14 35.89 17.46
-5 11 -14 88.51 18.01
5 11 14 50.54 17.05
-5 11 -14 64.95 21.68
-11 -5 -14 78.26 17.89
-11 -5 -13 138.64 19.02
5 11 13 142.91 18.19
-5 11 -13 149.58 19.12
5 -11 -13 128.71 19.55
-11 -5 -12 155.15 18.96
5 -11 -12 156.8 20.53
5 11 12 180.29 19.42
-5 11 -12 133.78 18.31
-5 11 -11 117.12 17.87
-11 -5 -11 143.12 18.22
5 -11 -11 163.96 20.38
-5 11 -10 48.39 15.69
-11 -5 -10 33.8 14.8
5 -11 -10 43.28 17.97
-5 11 -9 33.13 14.85
-11 -5 -9 31.34 14.85
5 -11 -9 41.23 17.16
-5 11 -8 53.56 14.99
-11 -5 -8 103.88 15.93
5 -11 -8 69.73 17.85
-11 -5 -7 384.91 22.51
5 -11 -7 390.49 25.03
-11 -5 -6 31.25 13.07
5 -11 -6 19.1 18.62
5 -11 -6 28.42 16.12
-11 -5 -5 283.15 18.09
5 -11 -5 222.12 22.95
5 -11 -5 252.66 21.56
-11 -5 -4 24.03 11.7
5 -11 -4 22.55 19.05
5 -11 -4 15.75 16.5
-5 -11 4 22.91 13.62
5 -11 -3 215.22 22.54
5 -11 -3 246.32 20.86
-5 -11 3 239.75 18.45
5 -11 -2 103.53 20.13
5 -11 -2 111.39 17.48
-5 -11 2 117.59 15.03
5 -11 -1 192.65 18.95
5 -11 -1 161.32 20.63
-11 5 1 164.85 13
-5 -11 1 196.16 16.95
5 -11 0 38.32 16.45
-5 -11 0 38.34 13.66
-11 5 0 47.49 10.64
5 -11 0 11.4 17.12
-5 -11 -1 203.57 16.55
-11 5 -1 199.62 12.94
5 -11 1 164.01 18.28
5 -11 2 136.19 17.71
-11 5 -2 129.65 11.98
-5 -11 -2 94.88 15.19
-11 5 -3 249.85 16.43
-5 11 3 241.99 13.73
-5 -11 -3 247.35 19.65
5 -11 3 182.92 20.5
-11 5 -4 33.7 11.98
-5 -11 -4 36.31 15.27
-5 11 4 73.74 10.63
5 -11 4 6.52 16.84
11 -5 -4 38.01 14.69
-5 11 5 285.18 17.48
-5 -11 -5 286.82 21.28
-11 5 -5 261.04 17.78
5 -11 5 261.9 22.29
11 -5 -5 271.2 20.39
-5 11 6 13.35 12.21
-11 5 -6 -10.14 12.45
-5 -11 -6 15.12 15.73
11 -5 -6 9.53 14.93
5 -11 6 17.99 17.23
-11 5 -7 379.86 21.82
-5 -11 -7 346 23.93
-5 11 7 357.97 21.08
11 -5 -7 302.48 22.37
-5 11 8 103.97 15.62
-5 -11 -8 98.02 18.2
-11 5 -8 96.15 15.3
-5 -11 -9 58.58 17.93
-11 5 -9 42.25 14.37
-5 11 9 25.7 14.78
-11 5 -9 38.54 16.85
-11 5 -10 36.9 14.62
-11 5 -10 28.28 16.35
-5 -11 -10 52.04 18.03
-11 5 -11 89.88 16.28
-11 5 -11 118.12 19.48
-5 -11 -11 116.12 20.29
-11 5 -12 152.04 18.6
-5 -11 -12 164.53 21.23
-11 5 -12 151.03 20.72
-11 5 -13 113.57 17.66
-11 5 -13 147.04 21
-5 -11 -13 172.11 21.6
-11 5 -14 77.13 17.01
-11 5 -14 74.77 20.14
-5 -11 -14 74.54 20.46
-11 5 -15 13.29 16.18
-11 5 -15 33.91 19.75
-5 -11 -15 14.83 18.94
-5 -11 -16 15.3 19.63
-11 5 -16 31.09 20.58
-11 5 -16 2.77 16.56
-5 -11 -17 152.91 22.82
-11 5 -17 113.24 22.82
-11 5 -17 74.77 19.39
-5 -11 -18 8.11 20.42
-11 5 -18 62.45 22.35
-11 5 -18 15.15 18.24
-5 -11 -19 36.46 21.27
-11 5 -19 73.46 23.64
-11 5 -19 58.23 19.33
-11 5 -20 49.96 23.56
-11 5 -20 66.2 21.01
-5 -11 -20 101.49 23.28
-11 5 -21 79.17 24.81
-11 5 -21 44.59 20.58
-5 -11 -21 75.44 23.66
-11 5 -22 -7.78 24.71
-11 5 -22 1.11 19.9
-5 -11 -22 -4.47 23.17
-11 5 -23 21.37 25.59
-11 5 -23 7.97 21.03
-5 -11 -23 2.28 23.69
-11 5 -24 2.74 26.09
-11 5 -24 -20.96 21.67
-5 -11 -24 50.99 24.79
-11 -6 -23 7.26 21.69
-6 11 -23 60.75 28.37
-11 -6 -22 2.37 21.25
-6 11 -22 37.97 27.99
-6 11 -22 16.97 21.06
-11 -6 -21 19.69 20.74
6 11 21 21.43 17.98
-6 11 -21 44.81 26.28
-6 11 -21 44.68 20.64
6 11 20 13.13 17.32
-6 11 -20 -2.04 19.47
-6 11 -20 -1.3 26.18
-11 -6 -20 -6.78 20.03
6 11 19 29.01 17.72
-6 11 -19 -19.16 19.39
-6 11 -19 28.66 25.8
-11 -6 -19 2.19 19.15
6 11 18 18.47 16.73
-6 11 -18 20.62 18.74
-6 11 -18 32.92 24.05
-11 -6 -18 15.91 19.03
6 11 17 29.05 16.62
-6 11 -17 26.67 18.29
-11 -6 -17 25.58 18.59
-6 11 -17 29.34 23.32
-11 -6 -16 61.19 19.16
6 11 16 28.99 16.23
-6 11 -16 13.63 22.5
-6 11 -16 70.53 18.75
-11 -6 -15 77.95 18.96
6 11 15 83.48 17.6
-6 11 -15 66.98 22.7
-6 11 -15 88.71 18.75
-11 -6 -14 -13.69 17.4
6 11 14 11.2 16.04
-6 11 -14 12.88 21.29
-6 11 -14 27.43 16.86
-6 11 -13 15.3 15.67
6 11 13 11.84 16.56
-11 -6 -13 25.36 16.59
6 -11 -12 14.55 16.88
-6 11 -12 49.45 16.51
-11 -6 -12 6.69 16.15
6 -11 -11 110.31 19.09
-6 11 -11 101.54 17.45
-11 -6 -11 68.59 16.92
6 -11 -10 -9.64 17.84
-6 11 -10 19.5 14.9
-11 -6 -10 34.91 15.55
6 -11 -9 27.69 17.2
-11 -6 -9 11.54 14.85
-6 11 -9 25.23 15.26
-6 11 -8 298.82 21.78
6 -11 -8 331.7 23.72
-11 -6 -8 342.14 21.9
6 -11 -7 13.11 19.15
6 -11 -7 17.83 16.99
-11 -6 -7 -1.93 13.62
-6 11 -7 14.38 14.35
-11 -6 -6 96.75 14.59
6 -11 -6 91.68 18.47
6 -11 -6 138.64 21.35
6 -11 -5 39.24 16.42
6 -11 -5 3.38 18.76
6 -11 -4 41.77 16.82
6 -11 -4 67.59 19.45
6 -11 -3 286.18 22.14
6 -11 -3 289.09 24.5
-6 -11 2 63.49 14.09
6 -11 -2 17.81 18.67
6 -11 -2 67.83 17.49
-6 -11 1 126.95 16.01
6 -11 -1 125.34 20.22
-11 6 1 131.23 12.6
6 -11 -1 132.41 18.98
6 -11 0 354.48 24.37
-6 -11 0 370.64 22.12
-11 6 0 383.46 19.76
-6 -11 -1 148.79 16.72
-11 6 -1 141.76 13.59
6 -11 1 122.27 18.35
-6 -11 -2 60.1 15.4
-11 6 -2 52.51 11.65
6 -11 2 48.45 17.21
-11 6 -3 301.93 15.38
6 -11 3 287.56 21.28
-6 -11 -3 271.44 18.37
-6 -11 -4 55.07 16.14
6 -11 4 57.68 18.07
11 -6 -4 74.24 16.92
-11 6 -4 59.6 12.08
-6 -11 -5 12.73 15.36
6 -11 5 17.58 17.41
11 -6 -5 52.7 16.74
-11 6 -5 10.13 12.52
-6 -11 -6 104.36 18.16
6 -11 6 90.91 18.97
11 -6 -6 128.32 18.1
-11 6 -6 120.52 14.83
-11 6 -7 5.17 12.92
-6 -11 -7 7.94 16.71
11 -6 -7 6.01 15.67
-6 -11 -8 327.74 24.2
11 -6 -8 299.57 23.18
-11 6 -8 343 21.74
11 -6 -9 -15.66 16.64
-11 6 -9 21.25 13.94
-6 -11 -9 -10.08 17.32
-11 6 -10 0.74 14.56
-11 6 -10 20.91 17.3
-6 -11 -10 32.94 17.74
-11 6 -11 71.43 16.4
-6 -11 -11 79.73 19.29
-11 6 -11 93.44 19.2
-11 6 -12 20.91 15.82
-11 6 -12 9.06 17.88
-6 -11 -12 30.87 18.45
-11 6 -13 35.74 16.43
-11 6 -13 13.2 19.13
-6 -11 -13 3.55 19.21
-11 6 -14 26.69 15.79
-11 6 -14 -12.92 20.02
-6 -11 -14 18.36 18.96
-11 6 -15 62.56 17.21
-11 6 -15 43.12 20.58
-6 -11 -15 66.37 20.58
-11 6 -16 43.81 17.45
-11 6 -16 65.64 21.86
-6 -11 -16 38.19 20.1
-6 -11 -17 29.26 20.69
-11 6 -17 35.66 21.6
-11 6 -17 17.43 17.85
-6 -11 -18 16.61 20.62
-11 6 -18 48.49 22.55
-11 6 -18 56.71 18.8
-6 -11 -19 23.47 21.52
-11 6 -19 5.96 21.99
-11 6 -19 -1.06 18.99
-6 -11 -20 20.78 22.57
-11 6 -20 45.74 23.68
-11 6 -20 15.2 19.92
-6 -11 -21 43.66 23.5
-11 6 -21 15.51 24.54
-11 6 -21 72.31 21.36
-11 6 -22 2.65 25.1
-11 6 -22 17.04 20.93
-6 -11 -22 -11.42 23.53
-11 6 -23 46.32 25.86
-6 -11 -23 75.69 25.07
-11 6 -23 45.94 21.49
-7 11 -23 -11.28 27.83
-7 11 -23 -12.35 21.55
-7 11 -22 52.78 28.04
-7 11 -22 13.15 20.87
-7 11 -21 -32.48 26.96
-7 11 -21 26.84 20.7
-7 11 -20 -3.99 25.7
-7 11 -20 34.73 20.1
-7 11 -19 38.43 25.45
-7 11 -19 2.08 19.73
7 11 19 -4.53 16.6
-7 11 -18 1.02 19.13
7 11 18 27.33 16.77
-7 11 -18 18.85 23.63
-11 -7 -18 9.7 19.77
-7 11 -17 34.46 18.8
-7 11 -17 24.13 23.33
7 11 17 25.69 16.95
-11 -7 -17 -9.4 18.88
-7 11 -16 150.31 26.03
7 11 16 130.93 18.99
-11 -7 -16 188.82 22.35
-7 11 -16 201.45 22.12
-7 11 -15 94.17 23.84
7 11 15 24.87 16.27
-11 -7 -15 46.71 18.41
-7 11 -15 53.92 17.92
-7 11 -14 23.32 21.61
-7 11 -14 69.52 18.4
7 11 14 51.56 17.07
-11 -7 -14 48.68 18.93
-7 11 -13 7.04 16
7 11 13 28.25 16.53
-11 -7 -13 -6.29 16.75
-7 11 -12 101.48 17.98
-11 -7 -12 131.47 19.46
-7 11 -11 19.94 15.86
7 -11 -11 37.22 17.1
-11 -7 -11 -10.66 15.79
-7 11 -10 31.4 15.96
7 -11 -10 34.49 17.69
-7 11 -9 22.64 15.25
7 -11 -9 48.95 18.03
-7 11 -8 101.06 17.08
7 -11 -8 114.44 22.09
7 -11 -8 141.14 19.82
-7 11 -7 69.2 15.86
7 -11 -7 61.9 20.87
7 -11 -7 64.02 18.08
7 -11 -6 129.78 21.77
7 -11 -6 109.43 18.79
7 -11 -5 21.58 19.37
7 -11 -5 32.14 17.67
7 -11 -4 333.91 26.41
7 -11 -4 373.56 24.81
7 -11 -3 -7.63 18.84
7 -11 -3 24.43 16.74
7 -11 -2 86.85 20.12
7 -11 -2 93.24 18.32
-7 -11 1 85.78 14.99
7 -11 -1 73.99 19.48
-11 7 1 79.57 11.68
7 -11 -1 90.2 18.48
-11 7 0 355.25 19.69
-7 -11 0 373.21 22.33
7 -11 0 363.54 24.67
-7 -11 -1 82.99 15.63
7 -11 1 85.26 18.42
-11 7 -1 77.5 12.61
-7 -11 -2 124.64 16.32
7 -11 2 98.18 18.37
-11 7 -2 114.22 13.82
-7 -11 -3 -8.76 15.14
-11 7 -3 14.23 12.05
7 -11 3 22.17 17.35
-7 -11 -4 316.06 21.94
11 -7 -4 282.22 23.1
-11 7 -4 350.91 20.38
7 -11 4 281.63 24.07
11 -7 -5 37.41 17.81
-7 -11 -5 4.09 16.22
7 -11 5 16.59 16.89
-11 7 -5 25.35 12.62
-7 -11 -6 118.15 18.54
11 -7 -6 108.24 19.26
-11 7 -6 155.89 16.18
-7 -11 -7 108.03 17.88
11 -7 -7 90.53 18.27
-11 7 -7 106.3 15.64
-7 -11 -8 147.52 19.98
11 -7 -8 106.67 18.63
-11 7 -8 119.27 15.8
-7 -11 -9 12.63 17.79
11 -7 -9 21.59 16.99
-11 7 -9 50.43 15.02
-7 -11 -10 11.45 17.53
-11 7 -10 22.22 14.48
-11 7 -11 36.53 15.33
-11 7 -11 -8.29 18.24
-7 -11 -11 32.16 18.43
-11 7 -12 98.88 17.69
-11 7 -12 84.42 20.53
-7 -11 -12 101.75 20.32
-11 7 -13 1.72 15.46
-11 7 -13 30.69 20.1
-7 -11 -13 -13.62 19.25
-11 7 -14 65.46 17.14
-11 7 -14 52.3 20.33
-7 -11 -14 63.9 20.19
-11 7 -15 117.04 18.83
-11 7 -15 68.94 21.81
-7 -11 -15 78.64 21.73
-11 7 -16 177.57 21.59
-11 7 -16 173.94 25.18
-7 -11 -16 196.44 24.71
-11 7 -17 32.38 17.96
-11 7 -17 47.45 22.26
-7 -11 -17 16.52 20.5
-7 -11 -18 32.92 21.99
-11 7 -18 -2.39 22.39
-11 7 -18 4.07 18.24
-7 -11 -19 35.99 22.27
-11 7 -19 6.16 22.99
-11 7 -19 24.28 19.6
-7 -11 -20 32.41 22.9
-11 7 -20 43.11 23.62
-11 7 -20 27.53 20.1
-7 -11 -21 34.3 23.07
-11 7 -21 -13.09 24.78
-11 7 -21 11.33 20.25
-7 -11 -22 6.99 23.48
-11 7 -22 -36.82 26.56
-11 7 -22 28.91 21.11
-11 7 -23 26.44 26.96
-7 -11 -23 24.96 23.97
-11 7 -23 15.26 21.45
-8 11 -23 30.02 22.55
-8 11 -22 -53.89 28.7
-8 11 -22 45.17 21.88
-8 11 -21 -16.61 27.95
-8 11 -21 40.87 21.4
-8 11 -20 8.66 20.61
-8 11 -20 78.84 27.4
-8 11 -19 58.69 20.71
-8 11 -19 23.63 25.13
-8 11 -18 12.57 19.35
-8 11 -18 21.94 25.4
8 11 17 2.58 16.05
-8 11 -17 1.02 18.66
-8 11 -17 18.61 24.11
-8 11 -16 51.36 19.11
-8 11 -16 3.63 23.45
8 11 16 10.99 16.24
-8 11 -15 52.65 18.33
-8 11 -15 71.34 23.58
8 11 15 55.35 17.33
-8 11 -14 29.96 17.07
-8 11 -14 18.34 21.78
8 11 14 27.47 16.8
-8 11 -13 31.11 17.11
-8 11 -12 80.83 17.91
-8 11 -11 22.14 15.94
-8 11 -10 32.52 16.29
-8 11 -9 36.95 15.91
8 -11 -9 81.55 18.77
8 -11 -9 31.61 21.27
-8 11 -8 228.54 20.1
8 -11 -8 226.82 22.36
8 -11 -8 207.34 24.57
-8 11 -7 263.28 20.39
8 -11 -7 223.9 22.17
8 -11 -7 205.96 24.74
8 -11 -6 44.85 18.19
8 -11 -6 45.29 20.72
-8 11 -6 59.58 15.16
8 -11 -5 131.87 22.59
8 -11 -5 127.55 19.29
8 -11 -4 185.95 22.98
8 -11 -4 165.38 20.76
8 -11 -3 26.14 19.51
8 -11 -3 -2.95 17.51
8 -11 -2 28.88 18.61
8 -11 -2 -9.63 16.75
8 -11 -1 6.74 17.47
-11 8 0 24.73 11.17
8 -11 0 43.31 17.89
-11 8 -1 1.68 11.28
-8 -11 -1 -0.57 14.07
8 -11 1 14.68 17.45
11 -8 -2 5.9 16.62
8 -11 2 0.78 17.43
-8 -11 -2 7.8 14.09
-11 8 -2 -1.75 11.98
8 -11 3 39 18.02
-11 8 -3 -3.62 12.22
-8 -11 -3 15.82 14.53
11 -8 -4 185.17 21.55
-8 -11 -4 195.83 19.59
8 -11 4 207.01 21.08
-11 8 -4 166.49 16.42
-11 8 -5 164.49 15.97
11 -8 -5 159.29 20.89
-8 -11 -5 120.12 18.58
-11 8 -6 36.53 14.22
11 -8 -6 72.3 19.44
-8 -11 -6 99.02 17.79
-11 8 -7 248.66 19.43
11 -8 -7 229.24 23.33
-8 -11 -7 251.36 21.79
-11 8 -8 268.48 20.37
11 -8 -8 209.22 23.03
-8 -11 -8 252.76 22.62
-11 8 -9 50.57 15.74
11 -8 -9 10.01 18.46
-8 -11 -9 38.54 18.23
-8 -11 -10 28.25 18.19
-11 8 -10 29.17 14.9
-8 -11 -11 39.79 18.83
-11 8 -11 11.56 15.42
-8 -11 -12 99.55 20.73
-11 8 -12 116.64 18.28
-11 8 -12 87.36 21.61
-8 -11 -13 36.2 19.09
-11 8 -13 51.41 17.39
-11 8 -13 24.83 20.05
-8 -11 -14 34.58 19.92
-11 8 -14 31.24 17.47
-11 8 -14 13.96 20.66
-8 -11 -15 50.63 20.59
-11 8 -15 26.38 17.75
-11 8 -15 12.24 21.45
-8 -11 -16 -4.1 20.03
-11 8 -16 24.19 17.42
-11 8 -16 26.67 21.91
-8 -11 -17 21.13 21.76
-11 8 -17 18.96 18.04
-11 8 -17 -4.76 22.33
-8 -11 -18 45.63 22.01
-11 8 -18 28.49 23.87
-11 8 -18 -15.47 18.51
-8 -11 -19 31.23 22.93
-11 8 -19 10.16 23.27
-11 8 -19 34.14 19.73
-8 -11 -20 75.42 24.39
-11 8 -20 20.94 24.98
-11 8 -20 5.5 19.97
-8 -11 -21 14.02 23.54
-11 8 -21 41.49 25.35
-11 8 -21 30.98 21.48
-8 -11 -22 30.95 24.02
-11 8 -22 15.21 26.28
-11 8 -22 5.89 21.44
-9 11 -22 23.21 21.88
-9 11 -21 -8.49 27.49
-9 11 -21 55.44 21.62
-9 11 -20 4.43 20.56
-9 11 -20 56.94 28
-9 11 -19 32.76 20.7
-9 11 -19 6.72 25.56
-9 11 -18 6.45 19.74
-9 11 -18 48.88 25.56
-9 11 -17 80.61 20.61
-9 11 -17 30.54 24.15
-9 11 -16 4.05 18.21
9 11 16 -2.58 15.93
-9 11 -16 19.87 24.18
-9 11 -15 22.85 23.18
9 11 15 23.88 16.41
-9 11 -15 15.88 18.46
-9 11 -14 43.5 23.16
-9 11 -14 47.86 18.05
9 11 14 33.11 16.94
-9 11 -13 118.5 19.46
-9 11 -12 45.49 17.79
-9 11 -11 61.39 17.36
9 -11 -11 66.53 23.26
-9 11 -10 98.55 18.14
9 -11 -10 105.69 23.26
-9 11 -9 58.97 16.21
9 -11 -9 54.8 21.37
-9 11 -8 12.03 14.81
9 -11 -8 40.44 21.19
-9 11 -7 33.68 15.44
9 -11 -7 32.12 21.03
9 -11 -7 43.4 19.18
-9 11 -6 130.2 17.39
9 -11 -6 125.42 22.85
9 -11 -6 126.13 20.73
-9 11 -5 78.55 15.65
9 -11 -5 98.71 22.03
9 -11 -5 86.97 19.24
9 -11 -4 16.32 20.21
9 -11 -4 4.55 17.45
9 -11 -3 21.28 19.82
9 -11 -3 44.98 18.43
9 -11 -2 40.52 19.99
9 -11 -2 26.19 18.35
9 -11 -1 179.46 21.54
9 -11 0 18.98 18.21
-11 9 -1 159.23 15.35
11 -9 -1 193.26 20.94
9 -11 1 120.85 20.95
-11 9 -2 20.51 12.52
11 -9 -2 23.61 17.68
9 -11 2 40.59 18.42
9 -11 3 17.26 18.48
11 -9 -3 31.06 17.5
-11 9 -3 44.63 13.27
-9 -11 -3 31.87 15.61
-11 9 -4 19.26 13.16
11 -9 -4 12.94 18.74
-9 -11 -4 4.02 15.47
-11 9 -5 63.46 14.53
11 -9 -5 89.99 20.65
-9 -11 -5 59.07 17.12
-11 9 -6 74.31 15.21
11 -9 -6 73.09 20.77
-9 -11 -6 109.22 18.35
-11 9 -7 21.39 14.46
11 -9 -7 37.07 20.39
-9 -11 -7 31.06 17.36
-11 9 -8 19.14 14.58
11 -9 -8 5.24 19.67
-9 -11 -8 32.27 17.49
-9 -11 -9 35.9 17.98
-11 9 -9 67.31 15.99
11 -9 -9 12.59 19.76
-9 -11 -10 125.75 20.36
-11 9 -10 133.23 18.05
11 -9 -10 118.02 21.72
-9 -11 -11 29.14 19.07
-11 9 -11 37.34 15.74
11 -9 -11 30.94 20.04
-9 -11 -12 33.9 19.15
-11 9 -12 17.73 16.1
-9 -11 -13 85.51 20.87
-11 9 -13 57.53 22.3
-11 9 -13 112 18.67
-9 -11 -14 46.22 20.33
-11 9 -14 14.6 21.82
-11 9 -14 23.63 17.46
-9 -11 -15 -6.1 20.14
-11 9 -15 3.47 21.72
-11 9 -15 -8.79 17.33
-9 -11 -16 6.3 20.42
-11 9 -16 17.97 17.73
-11 9 -16 13.2 22.25
-11 9 -17 42.01 19.12
-11 9 -17 60.72 24.53
-11 9 -18 15.78 19.27
-11 9 -18 55.94 24.7
-11 9 -19 14.08 19.57
-11 9 -19 25.07 25.25
-11 9 -20 34.63 20.8
-11 9 -20 12.09 25.48
-9 -11 -20 47.91 23.71
-11 9 -21 -8.03 20.6
-11 9 -21 33.16 26.06
-9 -11 -21 26.25 24.1
-11 9 -22 41.74 22.58
-10 11 -21 30.13 21.71
-10 11 -21 -28.8 28.39
-10 11 -20 54.47 22.11
-10 11 -20 -2.83 27.48
-10 11 -19 22.27 20.53
-10 11 -19 15.07 26.56
-10 11 -18 16.48 20.24
-10 11 -18 52.66 25.91
-10 11 -17 1.08 19.51
-10 11 -17 3.91 24.68
-10 11 -16 17.73 19.08
-10 11 -16 41.87 24.57
-10 11 -15 11.15 18.11
-10 11 -15 29.61 23.8
-10 11 -14 -21.73 22.68
10 11 14 12.89 16.67
-10 11 -14 -1.97 17.26
-10 11 -13 84.28 18.77
10 -11 -12 53.11 23.65
-10 11 -12 22.51 17.25
10 -11 -11 19.78 22.04
-10 11 -11 42.44 16.89
10 -11 -10 33.57 22.19
-10 11 -10 49 16.78
10 -11 -9 64.28 22.86
-10 11 -9 29.6 15.86
-11 -10 -8 63.75 18.2
10 -11 -8 58.94 22.38
-10 11 -8 87.68 17.07
-11 -10 -7 139.32 18.71
10 -11 -7 80.17 22.35
-10 11 -7 91.07 16.52
10 -11 -6 23.93 20.76
-10 11 -6 22.64 15.21
10 -11 -5 51.77 21.82
-10 11 -5 45.55 14.92
10 -11 -5 66.37 19.29
10 -11 -4 225.26 24.87
-10 11 -4 201.92 18.65
10 -11 -4 223.15 22.47
10 -11 -3 63.79 21.68
10 -11 -3 80.16 19.46
10 -11 -2 98.2 20.31
10 -11 -1 42.95 19.08
10 -11 0 1.64 18.78
10 -11 1 53.09 19.41
11 -10 -1 50.05 19.37
11 -10 -2 45.73 19.31
-11 10 -2 64.19 14.2
11 -10 -3 99.4 20.04
-11 10 -3 61.73 14.14
-11 10 -4 183.61 18.02
11 -10 -4 204.68 23.82
-10 -11 -5 52.81 16.94
-11 10 -5 71.38 14.89
11 -10 -5 55.58 20.9
-10 -11 -6 8.1 16.58
-11 10 -6 18.87 14.38
11 -10 -6 30.09 20.93
-10 -11 -7 93.7 18.38
-11 10 -7 92.5 16.32
11 -10 -7 92 22.53
-10 -11 -8 70.22 18.3
11 -10 -8 77.66 22.06
-11 10 -8 68.22 16.02
11 -10 -9 36.52 21.74
-10 -11 -9 44.1 17.91
-11 10 -9 8.3 15.47
11 -10 -10 -3.92 21.12
-10 -11 -10 -13.86 18.26
-11 10 -10 22.52 15.85
11 -10 -11 -10.98 21.68
-10 -11 -11 15.35 18.89
-11 10 -11 18.73 15.97
11 -10 -12 -8.14 21.06
-11 10 -12 22.8 16.63
-10 -11 -12 32.77 19.71
-10 -11 -13 136.02 22.4
-11 10 -13 114.95 24.16
11 -10 -13 58.59 21.72
-11 10 -13 115.83 19.47
-10 -11 -14 -1.01 19.85
-11 10 -14 -10.7 17.33
-11 10 -14 -12.89 21.92
-11 10 -15 10.07 17.71
-11 10 -15 30.27 22.54
-11 10 -16 21.78 18.4
-11 10 -16 41.03 23.91
-11 10 -17 23.26 19.23
-11 10 -17 -5.16 24.51
-11 10 -18 19.42 19.64
-11 10 -18 11.85 24.49
-11 10 -19 1.11 19.8
-11 10 -19 1.36 25.81
-11 10 -20 14.75 20.69
-11 10 -20 43.17 26.65
-11 10 -21 38.46 21.47
-11 10 -21 -26.93 26.99
11 -11 0 50.03 19.7
11 -11 -1 12.64 19.4
11 -11 -2 -18.3 19.64
-11 11 -2 3.56 13.65
11 -11 -3 47.05 20.09
-11 11 -3 45.19 14.52
11 -11 -4 139.19 23.56
-11 11 -4 189.46 18.57
11 -11 -5 85.33 22.59
-11 11 -5 102.26 16.7
11 -11 -6 86.77 22.51
-11 11 -6 44.52 15.14
11 -11 -7 30.8 21.91
-11 11 -7 60.9 16.03
11 -11 -8 145.18 24.68
-11 -11 -8 178.63 21.24
-11 11 -8 219.67 19.59
11 -11 -9 35.5 22.04
-11 -11 -9 44.12 18.85
-11 11 -9 1.74 15.76
11 -11 -10 108.51 23.91
-11 -11 -10 130.03 21.62
-11 11 -10 140.17 19.35
11 -11 -11 4.24 22.59
-11 -11 -11 20.26 19.45
-11 11 -11 14.95 16.43
11 -11 -12 61.53 23.85
-11 -11 -12 85.99 20.82
-11 11 -12 71.7 18.57
11 -11 -13 8.78 22.58
-11 -11 -13 44.64 20.3
-11 11 -13 48.84 18.01
-11 11 -14 48.56 18.43
11 -11 -14 -14.64 23.2
-11 11 -14 34.47 24.07
-11 11 -15 59.27 24.67
-11 11 -15 52.81 19.27
-11 11 -16 75.05 25.79
-11 11 -16 92.02 20.52
-11 11 -17 -29.26 25.2
-11 11 -17 15.34 20.16
-11 11 -18 31.55 26.14
-11 11 -18 32.35 20.5
-11 11 -19 52.94 27.66
-11 11 -19 22.67 20.92
-11 11 -20 28.74 27.56
-11 11 -20 8.09 20.6
0 -12 0 20.73 16.34
0 -12 0 26.72 15.98
0 -12 -1 55.22 16.86
0 -12 1 47 16.11
0 -12 1 69.64 16.04
0 -12 -1 83.22 16.53
0 -12 -2 109.8 18.18
0 -12 2 89.55 16.96
0 -12 -2 103.84 17.33
0 -12 -3 412.98 27.26
0 -12 3 514.03 27.7
-12 0 -3 528.83 24
0 -12 -3 495.53 28.04
-12 0 -4 120.31 14.11
0 -12 -4 157.55 19.41
0 -12 -4 143.8 18.79
0 -12 4 116.22 17.17
-12 0 -5 386.79 21.69
0 -12 5 401.15 24.54
0 -12 -5 383.27 25.21
0 -12 -6 17.11 16.53
0 -12 6 16.2 16.69
-12 0 -6 33.06 13.17
0 -12 -7 6.59 16.12
-12 0 -7 -7.98 12.81
0 -12 7 -11 16.54
0 12 8 1.3 14.31
0 -12 -8 -9.7 16.83
-12 0 -8 42.21 13.39
0 -12 8 29.31 16.43
0 -12 -9 28.27 17.32
0 12 9 47.22 15.31
0 -12 9 10.64 16.47
-12 0 -9 17.05 14.28
0 12 10 36.43 15.06
0 -12 -10 -14.93 17.13
-12 0 -10 14.4 14.46
0 12 11 51.41 15.68
0 12 -11 59.66 14.89
0 -12 -11 49.12 18.55
-12 0 -11 69.3 16.05
0 -12 -12 14.09 18.08
0 12 12 14.7 15.16
0 12 -12 -5.65 14.13
-12 0 -12 18.16 16.26
-12 0 -12 21.32 15.59
-12 0 -13 96.83 17.45
0 -12 -13 35.87 18.98
0 12 13 42.14 16.36
0 12 -13 44.92 14.8
0 12 -13 16.81 18.64
-12 0 -13 54.4 17.58
-12 0 -14 73.34 17.62
0 12 14 50.38 16.89
0 -12 -14 80.86 19.81
0 12 -14 93.16 21.07
-12 0 -14 82.93 19.28
0 -12 -15 13.54 19.93
0 12 15 37.51 17.34
-12 0 -15 3.57 18.37
-12 0 -15 26.99 16.92
0 -12 -16 32.24 19.86
0 12 16 33.11 17.69
-12 0 -16 56.32 20.06
-12 0 -16 76.93 18.53
0 -12 -17 29.29 20.09
0 12 17 8.25 17.18
-12 0 -17 -10.77 17.61
-12 0 -17 -6.89 19.08
0 -12 -18 32.89 20.64
-12 0 -18 23.57 18.67
-12 0 -18 6.18 19.96
0 -12 -19 70.41 22.22
-12 0 -19 42.27 20.18
-12 0 -19 33.23 21.21
0 -12 -20 82.08 23.34
-12 0 -20 80.24 21.23
-12 0 -20 47.27 22.24
0 -12 -21 50.67 22.72
-12 0 -21 77.4 23.9
-12 0 -21 51.22 20.63
0 -12 -22 -45.33 21.34
-12 0 -22 15.9 20.84
-12 0 -22 4.85 23.32
-12 0 -23 8.12 20.48
-12 0 -23 -24.95 24.34
-12 0 -24 15.37 21.15
-12 0 -24 29.61 25.23
-12 -1 -24 31.98 21.9
-12 -1 -24 12.81 24.31
-12 -1 -23 -3.49 20.67
-12 -1 -23 12.43 24.04
-12 -1 -22 12.49 20.79
-12 -1 -22 29.97 23.71
-12 -1 -21 25.45 19.45
-12 -1 -21 18.48 22.75
-12 -1 -20 11.86 19.2
-12 -1 -20 31.2 22.49
1 -12 -19 27.32 20.51
-12 -1 -19 50.45 19.4
-12 -1 -19 52.54 21.86
1 -12 -18 34.41 20.87
-12 -1 -18 35.87 20.96
-12 -1 -18 20.41 18.38
1 12 18 28.37 17.85
1 12 17 7.21 17.32
-12 -1 -17 33.04 19.59
-1 12 -17 29.76 22.17
1 -12 -17 8.41 20.25
-12 -1 -17 46.45 18.67
1 12 16 -12.96 16.86
-1 12 -16 2.95 20.88
1 -12 -16 21.82 20.23
-12 -1 -16 42.15 17.9
1 12 15 44.07 17.14
-1 12 -15 74.78 21.55
1 -12 -15 45.1 19.86
-12 -1 -15 88.7 18.79
-1 12 -14 28.25 15.62
1 12 14 30.36 16.17
-1 12 -14 69.95 20.52
1 -12 -14 37.84 19.42
-12 -1 -14 37.96 17.1
-1 12 -13 32.16 15.83
1 -12 -13 23.45 18.17
-12 -1 -13 31.09 16.78
1 12 13 33.76 16.19
-1 12 -12 46.36 15.7
1 -12 -12 69.62 18.8
-12 -1 -12 66.27 16.9
1 12 12 53.12 15.88
-1 12 -11 32.26 15.21
1 12 11 70.8 16.45
-12 -1 -11 48.6 15.81
1 -12 -11 51.9 18.4
1 12 10 108.63 17.1
1 -12 -10 79.29 18.47
-12 -1 -10 114.64 16.72
1 12 9 35.74 15.31
1 -12 -9 2.29 16.75
-1 -12 9 12.31 16.28
-12 -1 -9 21.2 13.9
-1 -12 8 59.9 17.13
1 -12 -8 48.43 17.23
-12 -1 -8 40.09 13.69
-1 -12 7 48.29 16.53
1 -12 -7 71.21 17.18
-12 -1 -7 82.3 14.12
1 -12 -6 236.42 21.18
-1 -12 6 225.63 20.53
-12 -1 -6 253.18 17.94
-12 -1 -5 121.72 14.34
-1 -12 5 94.85 17.05
1 -12 -5 117.6 18.19
-12 -1 -4 77.36 12.58
1 -12 -4 100.56 18.54
-1 -12 4 80.1 16.4
1 -12 -4 52.25 16.91
-1 -12 3 342.38 22.32
1 -12 -3 296.27 23.52
1 -12 -3 304.28 22.65
1 -12 -2 224.13 20.62
1 -12 -2 187.04 19.8
-1 -12 2 199.6 19.02
-1 -12 1 20.39 14.56
1 -12 -1 43.62 16.96
-1 -12 1 4.57 15.4
1 -12 -1 31.42 16.28
1 -12 0 14.73 16.02
-1 -12 0 62.2 16.02
-1 -12 0 21 15.36
1 -12 0 34.03 15.79
-1 -12 -1 10.34 15.41
1 -12 1 25.5 15.99
1 -12 1 26.31 15.19
-1 -12 -1 21.19 15.47
-1 -12 -2 227.17 20.35
1 -12 2 243.77 20.28
-1 -12 -2 201.43 19.5
1 -12 3 259.14 21.42
-1 -12 -3 287.77 21.75
-1 -12 -3 296.33 21.96
-12 1 -3 302.01 17.74
-12 1 -4 67.25 12.45
1 -12 4 92.61 17.2
-1 -12 -4 62.12 16.36
-12 1 -5 145.77 15.03
1 -12 5 114.27 17.91
-1 -12 -5 143.06 18.43
-12 1 -6 214.04 17.53
-1 -12 -6 228.8 21
1 -12 6 204.7 20.44
-12 1 -7 59.58 14.15
-1 -12 -7 65.75 17.74
-1 12 7 78.09 15.4
1 -12 7 103.61 18.18
-12 1 -8 24.53 14.23
-1 -12 -8 54.17 18.08
-1 12 8 68.43 14.81
1 -12 8 72.68 17.64
-1 12 9 13.65 14.55
-1 -12 -9 10.81 17.22
-12 1 -9 39.03 14.66
-12 1 -9 37.99 15.29
1 -12 9 54.47 17.73
-12 1 -10 112.62 16.29
-1 12 10 91.91 15.99
-1 -12 -10 64.27 18.83
-12 1 -10 75.47 16.48
-12 1 -11 53.54 15.96
-1 12 11 54.77 15.65
-1 -12 -11 36.9 18.69
1 12 -11 42.64 13.6
-12 1 -11 42.77 16.06
-1 -12 -12 82.06 19.69
-1 12 12 34.52 15.98
-12 1 -12 59.5 16.23
-12 1 -12 74.17 17.41
-1 -12 -13 43.2 19.03
-1 12 13 25.34 16.52
-12 1 -13 37.97 16
-12 1 -13 26.15 17.28
-1 -12 -14 62.26 20
-1 12 14 64.26 17.07
-12 1 -14 57.86 17.06
-12 1 -14 19.09 18.36
-1 -12 -15 51.2 20.3
-1 12 15 58.21 17.02
-12 1 -15 49.29 17.59
-12 1 -15 26.36 19.11
-1 -12 -16 -21.64 20.16
-1 12 16 3.55 17.06
-12 1 -16 15.29 19.37
-12 1 -16 28.88 17.55
-1 -12 -17 22.23 20.54
-12 1 -17 13.02 19.66
-12 1 -17 3.86 17.94
-1 -12 -18 19.81 21.12
-12 1 -18 21.97 20.36
-12 1 -18 50.08 18.61
-1 -12 -19 46.72 22.09
-12 1 -19 97.14 23.26
-12 1 -19 54.14 19.75
-1 -12 -20 27.95 22.2
-12 1 -20 23.81 22.71
-12 1 -20 38.92 19.95
-1 -12 -21 -22.2 22.98
-12 1 -21 -7.04 22.58
-12 1 -21 15.68 19.93
-1 -12 -22 28.01 23.19
-12 1 -22 39.21 24.83
-12 1 -22 35.53 21.61
-1 -12 -23 15.34 23.61
-12 1 -23 25.67 21.31
-12 1 -23 -15.23 24.54
-12 1 -24 67.82 22.52
-12 1 -24 26.05 24.62
-12 -2 -23 33.69 21.18
-12 -2 -22 7.97 19.92
-12 -2 -21 51.16 20.52
-12 -2 -20 11.91 19.67
-2 12 -20 10.51 24.91
2 12 19 4.87 18.34
-12 -2 -19 38.87 19.43
-2 12 -19 14.81 24.24
2 12 18 -1.87 17.32
-12 -2 -18 12.22 18.46
-2 12 -18 4.37 22.6
2 -12 -18 -23.33 18.21
2 12 17 17.01 17.1
2 -12 -17 -6.38 19.56
-12 -2 -17 43.3 18.59
-2 12 -17 43.67 22.96
-2 12 -16 17.31 20.87
2 12 16 26.74 16.74
2 -12 -16 47.16 20.15
-12 -2 -16 16.2 17.58
-2 12 -16 28.68 16.83
-2 12 -15 71.92 22.09
2 12 15 128.79 18.88
2 -12 -15 80.32 20.37
-12 -2 -15 108.77 19.64
-2 12 -15 92.09 17.92
-2 12 -14 43.75 20.63
2 12 14 22.43 16.67
2 -12 -14 41.69 19.41
-2 12 -14 66.8 17.02
-12 -2 -14 34.53 16.79
2 12 13 17.74 15.27
2 -12 -13 19.91 18
-2 12 -13 9.39 15.16
-12 -2 -13 14.42 16.53
2 12 12 9.09 15.21
2 -12 -12 24.29 17.9
-2 12 -12 -9.15 15.47
-12 -2 -12 43.04 16.5
2 12 11 91.35 16.98
2 -12 -11 52.32 17.77
-2 12 -11 42.06 15.88
-12 -2 -11 87.28 17.14
2 12 10 46.22 16.18
-2 12 -10 13.89 15.12
2 -12 -10 61.38 18.23
-12 -2 -10 52.54 15.62
2 -12 -9 100.18 18.25
-12 -2 -9 115.25 16.5
-2 -12 9 75.28 16.93
2 -12 -8 60.64 17.88
-2 -12 8 34.97 15.96
-12 -2 -8 48.5 14.84
-2 -12 7 48.3 16.09
-12 -2 -7 31.87 13.67
2 -12 -7 35.53 17.09
-2 -12 6 155.81 18.27
-12 -2 -6 162.14 16.01
2 -12 -6 164.54 19.22
-2 -12 5 214.98 19.46
2 -12 -5 194.48 21.57
-12 -2 -5 181.73 16.28
2 -12 -5 213.21 20.34
-2 -12 4 170.76 18.04
2 -12 -4 136.31 20.21
-12 -2 -4 176.66 15.08
2 -12 -4 140.75 18.65
2 -12 -3 134.68 20.05
2 -12 -3 128.77 18.48
-2 -12 3 121.1 16.89
2 -12 -2 30.1 17.22
-2 -12 2 4.46 14.78
2 -12 -2 23.07 16.12
-2 -12 1 467.88 25.47
2 -12 -1 464.52 27.55
-2 -12 1 411.13 24.62
2 -12 -1 455.13 26.57
2 -12 0 6.59 16.59
-2 -12 0 -10.79 14.99
-2 -12 0 11.62 15.5
2 -12 0 -5.53 15.7
-2 -12 -1 408.1 24.65
-2 -12 -1 433.61 24.8
2 -12 1 382.96 25.65
2 -12 1 403.39 25.03
-2 -12 -2 34.54 15.18
-2 -12 -2 6.94 14.88
-12 2 -2 -3.61 10.72
2 -12 2 34.76 16.04
-2 -12 -3 154.21 18.11
-2 -12 -3 176.88 18.49
-12 2 -3 135.93 13.72
2 -12 3 154.51 18.47
-12 2 -4 150.24 14.34
2 -12 4 173.33 18.95
-2 -12 -4 160.99 18.38
-12 2 -5 199.76 16.27
-2 12 5 214.87 17.48
2 -12 5 263.09 21.38
-2 -12 -5 210.8 20.29
-2 -12 -6 150.1 19
-12 2 -6 164.41 15.48
-2 12 6 154.99 16.45
2 -12 6 168.16 19.63
-12 2 -6 125.47 15.25
-2 -12 -7 17.71 16.85
-12 2 -7 56.92 13.84
-2 12 7 70.57 14.67
2 -12 7 72.41 18.06
-12 2 -7 27.03 14.06
-2 -12 -8 5.29 16.9
-12 2 -8 15.68 13.68
-12 2 -8 54.59 14.51
2 -12 8 76.81 18.62
-2 12 8 23.13 13.75
-2 -12 -9 119.76 19.4
-12 2 -9 111.99 16.27
-12 2 -9 59.46 15.82
-2 12 9 94.57 16.06
-2 -12 -10 42.87 18.51
-12 2 -10 20.63 14.69
-12 2 -10 45.89 15.99
-2 12 10 39.5 15.26
-12 2 -11 69.66 16.55
-12 2 -11 64.17 17.24
-2 12 11 34.47 16.06
-2 -12 -11 60.67 19.07
-12 2 -12 -0.81 15.46
-12 2 -12 18.19 16.62
-2 12 12 -14.01 15.28
-2 -12 -12 -5.98 18.3
-12 2 -13 31.94 16.03
-12 2 -13 -6.69 17.35
-2 12 13 28.59 16.13
-2 -12 -13 39.64 18.89
-2 12 14 25.25 16.67
-12 2 -14 47.27 18.57
-12 2 -14 34.09 16.59
-2 -12 -14 17.26 19.17
-2 12 15 52.55 17.75
-12 2 -15 65.97 19.9
-12 2 -15 80.24 18.31
-2 -12 -15 67.14 20.26
-12 2 -16 37.18 19.58
-12 2 -16 17.71 17.13
-2 -12 -16 30.54 20.07
-12 2 -17 78.57 21.34
-12 2 -17 21.27 17.83
-2 -12 -17 46.84 20.59
-12 2 -18 12.79 20.48
-12 2 -18 11.99 17.9
-2 -12 -18 -16.96 20.92
-12 2 -19 66.67 22.37
-12 2 -19 46.5 19.5
-2 -12 -19 17.39 21.23
-12 2 -20 14.99 22.3
-12 2 -20 18.11 19.46
-2 -12 -20 9.42 21.51
-12 2 -21 5.98 23.35
-12 2 -21 9.93 19.84
-2 -12 -21 11.76 22.64
-12 2 -22 87.69 25.2
-12 2 -22 44.5 21.24
-2 -12 -22 46.89 23.76
-12 2 -23 17.85 24.48
-12 2 -23 2.35 20.82
-2 -12 -23 -4.43 23.37
-12 2 -24 42.27 25.82
-2 -12 -24 22.47 24.38
-12 -3 -23 17.8 21.89
-12 -3 -22 40.3 21.51
-3 12 -22 16.51 27.27
-12 -3 -21 -7.83 20.23
-3 12 -21 33.5 26.91
-12 -3 -20 -4.34 19.12
-3 12 -20 50.89 26.21
3 12 20 14.07 18.84
3 12 19 10.59 17.47
-3 12 -19 -1.17 23.71
-12 -3 -19 1.06 19.33
3 12 18 51.81 18.34
-3 12 -18 57.99 24.46
-12 -3 -18 85.16 19.62
-12 -3 -17 -6.95 17.7
3 12 17 22.34 17.09
3 -12 -17 65.77 16.38
-3 12 -17 48.38 22.8
-3 12 -17 26.62 17.34
-12 -3 -16 42.16 18.4
3 12 16 23.3 17.11
3 -12 -16 8.8 18.01
-3 12 -16 9.54 22.07
-3 12 -16 46.64 17.79
-12 -3 -15 170.54 20.75
3 12 15 147.66 19.4
3 -12 -15 113.3 20.62
-3 12 -15 120.85 24.15
-3 12 -15 121.74 19.5
-12 -3 -14 78.76 17.73
3 12 14 86.94 17.35
3 -12 -14 79.99 19.8
-3 12 -14 111.95 23.04
-3 12 -14 87.04 17.73
-3 12 -13 59.51 17.15
3 -12 -13 63.63 19.37
-12 -3 -13 100.07 18.39
3 12 13 82.03 17.47
-3 12 -12 13.47 16.03
3 -12 -12 55.07 19.08
-12 -3 -12 73.01 17.28
3 12 12 51.62 16.94
-3 12 -11 25.01 15.77
3 -12 -11 16.57 17.16
-12 -3 -11 26.32 15.71
3 12 11 34.89 16.42
-12 -3 -10 121.34 16.76
3 -12 -10 114.75 19.25
-3 12 -10 102.82 17.2
3 -12 -9 83.96 18.87
-12 -3 -9 56.59 15.22
-12 -3 -8 50.75 14.47
3 -12 -8 48.42 17.41
-3 -12 7 220.76 19.41
-12 -3 -7 239.92 18.41
3 -12 -7 246.39 21.8
-3 -12 6 121.94 17.41
-12 -3 -6 143 15.68
3 -12 -6 137.66 19.34
-3 -12 5 87.89 16.38
3 -12 -5 119.66 20.34
-12 -3 -5 94.71 14.07
3 -12 -5 80.63 18.23
3 -12 -4 57.38 18.36
3 -12 -4 54.04 17.08
-3 -12 4 23.06 15.08
3 -12 -3 28.5 18.18
-3 -12 3 17.2 15.04
3 -12 -3 21.45 16.16
3 -12 -2 3.94 17.73
3 -12 -2 17.12 16.1
-3 -12 2 3.73 14.82
-3 -12 1 396.71 24.43
3 -12 -1 415.86 27.36
-3 -12 1 442.71 24
3 -12 -1 441.97 26.27
-3 -12 0 32.12 14.74
3 -12 0 71.08 17.47
-3 -12 0 67.22 16.04
-3 -12 -1 465.6 25.87
3 -12 1 470.67 27.85
-3 -12 -1 503.41 26.98
-3 -12 -2 3.96 15.04
-3 -12 -2 7.76 14.37
-12 3 -2 -0.95 10.59
3 -12 2 6.42 16.29
-3 -12 -3 25.96 15.63
-3 -12 -3 38.58 15.22
3 -12 3 12.89 16.14
-12 3 -3 8.59 10.9
-12 3 -4 49.2 12.33
-3 12 4 57.87 13.14
3 -12 4 58.81 17.27
-3 -12 -4 56.27 16.41
-12 3 -5 106.34 14.25
-3 12 5 115.72 14.44
3 -12 5 97.64 18.44
-3 -12 -5 115.39 17.76
-12 3 -6 148.41 15.17
-3 12 6 120.66 15.35
3 -12 6 129.58 18.79
-3 -12 -6 107.13 18.5
-3 -12 -7 196.1 21.06
-12 3 -7 188.7 17.29
-3 12 7 202.5 17.42
3 -12 7 238.68 21.82
-12 3 -7 197.73 17.83
-3 -12 -8 53.13 17.86
-12 3 -8 36.67 13.61
3 -12 8 31.12 17.75
-12 3 -8 54.73 15.57
-3 12 8 60.58 14.52
-3 -12 -9 85.9 18.78
-12 3 -9 62.94 14.66
-12 3 -9 82.06 16.08
-3 12 9 56.76 15.48
-3 -12 -10 75.13 19.08
-12 3 -10 88.78 16.07
-12 3 -10 94.24 18.06
-3 12 10 71.24 16.3
-3 -12 -11 27.86 18.38
-12 3 -11 -3.82 15.11
-12 3 -11 26.41 16.76
-3 12 11 26.86 15.96
-3 -12 -12 39.22 18.91
-12 3 -12 46.01 16.83
-12 3 -12 38.62 17.75
-3 12 12 35.8 16.22
-12 3 -13 76.54 17.63
-12 3 -13 74.29 19.13
-3 12 13 44.95 16.69
-3 -12 -13 111.33 20.89
-12 3 -14 36.33 16.76
-12 3 -14 63.38 19.21
-3 12 14 50.67 17.84
-3 -12 -14 74.25 20.25
-3 -12 -15 128.06 22.59
-12 3 -15 191.6 21.14
-12 3 -15 102.21 21.15
-12 3 -16 40.68 20.75
-12 3 -16 22.78 16.91
-3 -12 -16 24.15 19.83
-12 3 -17 -1.05 20.12
-12 3 -17 33.21 17.89
-3 -12 -17 27.76 20.73
-12 3 -18 34.89 21.46
-12 3 -18 48.12 18.91
-3 -12 -18 21.35 21.11
-12 3 -19 -4.53 21.93
-12 3 -19 14.51 19.27
-3 -12 -19 48.97 22.15
-12 3 -20 25.85 22.48
-12 3 -20 23.46 19.36
-3 -12 -20 50.05 23.12
-12 3 -21 48.71 24.4
-12 3 -21 -1.1 19.71
-3 -12 -21 53.29 23.04
-12 3 -22 8.8 23.89
-12 3 -22 23.69 20.8
-3 -12 -22 31.11 23.7
-12 3 -23 7.77 25.07
-12 3 -23 22.09 21.34
-3 -12 -23 14.67 23.9
-12 3 -24 -11.94 25.21
-3 -12 -24 8.01 23.99
-4 12 -24 16.57 28.98
-4 12 -23 34.73 28.79
-12 -4 -23 14.44 21.03
-4 12 -22 -17.01 26.86
-12 -4 -22 27.04 21.14
-4 12 -21 2.55 26.07
-12 -4 -21 25.22 20.45
-12 -4 -20 6.69 20.48
-4 12 -20 51.53 27
4 12 20 -4.97 18.33
-4 12 -19 28.95 24.85
-4 12 -19 2.91 18.97
-12 -4 -19 -1.08 19.18
4 12 19 -14.32 17.43
-4 12 -18 -4.72 23.79
-12 -4 -18 60.3 20.3
4 12 18 34.14 17.92
-4 12 -18 6.64 18.51
-12 -4 -17 16.04 18.12
4 12 17 32.18 17.09
-4 12 -17 12.94 17.89
-4 12 -17 54.45 23.61
-4 12 -16 70.54 23.48
-12 -4 -16 52.12 18.73
4 12 16 90.04 18.01
4 -12 -16 22.74 17.82
-4 12 -16 29.23 17.86
-4 12 -15 132.97 24.36
-12 -4 -15 75.25 19.13
4 12 15 120.55 18.25
4 -12 -15 63.47 19.31
-4 12 -15 112.84 19.49
-4 12 -14 17.68 20.68
-12 -4 -14 18.76 17.33
4 12 14 -4.9 16.09
4 -12 -14 5.03 17.99
-4 12 -14 2.59 16.7
-12 -4 -13 67.57 17.42
-4 12 -13 60.76 17.74
4 -12 -13 39.34 18.98
4 12 13 95.77 18.03
4 -12 -12 39.75 19.46
-12 -4 -12 76.22 16.67
-4 12 -12 27.08 16.31
4 12 12 102.22 18.15
4 -12 -11 28.85 18.42
4 12 11 44.97 16.74
-4 12 -11 33.74 15.93
-12 -4 -11 21.87 15.9
-12 -4 -10 104.67 16.48
-4 12 -10 71.49 16.7
4 -12 -10 89.76 19.42
-12 -4 -9 284.89 20.45
-4 12 -9 202.89 20.24
4 -12 -9 259.54 22.98
-12 -4 -8 106.91 15.93
4 -12 -8 75.23 18.82
-12 -4 -7 156.93 16.17
4 -12 -7 104.89 19.63
-12 -4 -6 300.48 19.66
4 -12 -6 300.62 24.89
4 -12 -6 318.38 23.7
-4 -12 6 283.46 20.98
-12 -4 -5 4.34 11.82
4 -12 -5 35.71 18.87
4 -12 -5 -0.74 16.79
-4 -12 5 19.44 15.39
4 -12 -4 189.36 21.93
-4 -12 4 156.6 17.81
4 -12 -4 138.47 19.26
4 -12 -3 36.93 19.04
4 -12 -3 48.86 17.12
-4 -12 3 53.88 15.68
4 -12 -2 165.36 21.82
4 -12 -2 135.35 19.42
-4 -12 2 161.7 17.81
4 -12 -1 706.04 37.18
4 -12 -1 791.73 36.49
-4 -12 1 761.69 34.8
4 -12 0 25.3 17.82
4 -12 0 13.07 16.36
-4 -12 0 -3.79 14.78
-4 -12 -1 811.78 36.82
-12 4 -1 784.52 33.32
4 -12 1 815.97 37.77
-4 -12 -2 110.74 17.64
4 -12 2 119.98 19.67
-12 4 -2 132.63 13.95
-4 -12 -3 34.1 16.1
-12 4 -3 36.59 12.02
4 -12 3 41.43 16.38
-12 4 -4 166.26 15.37
-4 12 4 214.13 15.5
4 -12 4 128.8 19.47
-4 -12 -4 154.58 18.8
-12 4 -5 2.32 12.07
-4 12 5 11.29 12.38
4 -12 5 2.3 16.47
-4 -12 -5 -19.09 16.44
-12 4 -6 234.73 18.23
-4 12 6 231.21 17.82
4 -12 6 220.49 22.3
-4 -12 -6 224.79 21.38
-4 -12 -7 142.84 19.75
-12 4 -7 154.48 16.46
4 -12 7 126.75 20.28
-4 12 7 191.36 16.76
-4 -12 -8 81.76 18.11
-12 4 -8 68.32 14.56
-12 4 -8 75.6 16.71
-4 12 8 83.16 14.87
-4 -12 -9 202.51 22.02
-12 4 -9 246.43 19.11
-12 4 -9 178.73 19.84
-4 12 9 236.51 18.93
-4 -12 -10 64.92 19.44
-12 4 -10 90.82 16.03
-12 4 -10 57.03 17.44
-4 12 10 104.82 16.9
-4 -12 -11 47.24 19.02
-12 4 -11 72.02 15.89
-12 4 -11 34.94 17.15
-4 12 11 18.67 15.3
-4 -12 -12 8.79 18.82
-12 4 -12 57.88 16.41
-12 4 -12 29.03 17.77
-4 12 12 61.86 16.68
-12 4 -13 60.42 16.54
-4 -12 -13 39.72 19.63
-12 4 -13 56.17 19.27
-12 4 -14 -2.65 16.29
-12 4 -14 18.85 19.05
-4 -12 -14 21.39 19.96
-4 -12 -15 110.01 21.82
-12 4 -15 126.16 19.3
-12 4 -15 105.46 21.57
-4 -12 -16 64.95 21.19
-12 4 -16 26.96 17.56
-12 4 -16 68.5 21.37
-4 -12 -17 68.85 21.51
-12 4 -17 40.69 18.73
-12 4 -17 14.83 20.49
-12 4 -18 33.43 22.45
-4 -12 -18 42.6 21.3
-12 4 -18 -1.02 18.23
-12 4 -19 -17.43 22.1
-4 -12 -19 2.13 21.24
-12 4 -19 37.63 18.89
-12 4 -20 14.41 23.18
-4 -12 -20 38.18 22.56
-12 4 -20 49.25 20.28
-12 4 -21 -11.18 24.36
-4 -12 -21 31.2 23.43
-12 4 -21 8.8 19.48
-12 4 -22 -1.28 24.86
-4 -12 -22 4.54 23.19
-12 4 -22 2.26 20.54
-12 4 -23 5.27 25.42
-4 -12 -23 31.16 23.8
-12 4 -23 20.83 20.55
-5 12 -23 4.11 28.06
-12 -5 -23 19.52 21.46
-5 12 -22 13.49 27.87
-12 -5 -22 10.75 20.86
5 12 21 -2.04 17.84
-12 -5 -21 25.63 21.23
-5 12 -21 31.56 27.1
5 12 20 -3.94 18.2
-5 12 -20 17.49 20.3
-12 -5 -20 57.8 21.71
-5 12 -20 46.45 26.7
5 12 19 39.9 18.03
-5 12 -19 39.33 20.06
-12 -5 -19 71.57 21.3
-5 12 -19 89.71 26.38
5 12 18 60.83 18.32
-12 -5 -18 23.46 19.42
-5 12 -18 108.05 20.79
-5 12 -18 54.9 24.92
-5 12 -17 -7.69 18.19
5 12 17 5.38 16.63
-5 12 -17 24.64 23.87
-12 -5 -17 7.22 18.67
-5 12 -16 21.67 18.09
5 12 16 13.05 17.28
-5 12 -16 42.25 23.48
-12 -5 -16 18.93 18.53
-5 12 -15 150.72 20.2
5 12 15 139.33 19.11
-12 -5 -15 145.86 20.96
-5 12 -15 123.58 24.73
-12 -5 -14 104.21 19.79
5 12 14 131.65 18.87
-5 12 -14 109.63 18.51
5 -12 -14 109.21 19.78
5 12 13 76.67 17.74
5 -12 -13 39.13 19.29
-12 -5 -13 60.98 17.69
-5 12 -13 59.9 17.57
5 12 12 93.3 17.64
-12 -5 -12 51.51 17.17
5 -12 -12 102.93 19.88
-5 12 -12 84.35 17.85
-12 -5 -11 79.74 16.83
5 -12 -11 35.41 18.88
-5 12 -11 26.52 15.9
-12 -5 -10 222.99 20.56
5 -12 -10 224.37 22.89
-5 12 -10 302.48 22.13
-12 -5 -9 64.67 15.62
5 -12 -9 43.11 19.04
-5 12 -9 41.73 16.15
5 -12 -8 45.43 18.2
-12 -5 -8 24.03 14.62
5 -12 -7 84.8 21.19
5 -12 -7 73.91 17.84
-12 -5 -7 62.62 15.03
5 -12 -6 95.61 21.07
5 -12 -6 83.24 18.83
-12 -5 -6 95.1 14.98
5 -12 -5 137.44 20.19
5 -12 -5 153.62 22.25
5 -12 -4 69.27 18.12
-5 -12 4 55.63 15.52
5 -12 -4 64.53 19.59
5 -12 -3 62.93 17.62
-5 -12 3 58.33 15
5 -12 -3 43.72 19.26
5 -12 -2 253.51 22.08
-5 -12 2 233.41 19.62
5 -12 -2 260.32 23.71
5 -12 -1 70.51 17.73
-5 -12 1 107.45 16.44
5 -12 -1 65.64 19.87
5 -12 0 49.91 17.55
5 -12 0 33.74 18.25
-5 -12 0 47.47 15.63
-5 -12 -1 62.43 16.05
5 -12 1 65.71 17.67
-12 5 -1 61.37 11.52
-5 -12 -2 250.09 20.2
5 -12 2 213.57 21.72
-12 5 -2 226.52 16.33
-5 -12 -3 78.65 16.71
5 -12 3 70.54 17.94
-12 5 -3 63.13 12.33
-5 -12 -4 57.92 16.92
-5 12 4 78.26 10.48
5 -12 4 48.44 17.83
-12 5 -4 53.97 12.87
-5 -12 -5 168.86 19.16
-12 5 -5 169.23 16.3
5 -12 5 154.48 20.27
-5 12 5 212.55 15.33
-12 5 -6 108.53 15.11
-5 12 6 79.75 13.99
5 -12 6 105.05 20.05
-5 -12 -6 78.35 18.39
-5 -12 -7 29 17.3
-12 5 -7 57.4 14.47
5 -12 7 58.9 19.05
-5 12 7 54.14 13.8
-5 -12 -8 28.42 17.68
-12 5 -8 -1.39 13.59
-5 12 8 44.57 14.08
-5 -12 -9 84.4 19.47
-12 5 -9 57.18 15.43
-12 5 -9 66.06 17.57
-5 12 9 24.75 14.51
-5 -12 -10 257.58 23.29
-12 5 -10 236.56 20.05
-12 5 -10 186.15 21.01
-5 12 10 261.9 20.34
-12 5 -11 7.79 15
-5 -12 -11 45.87 19.07
-12 5 -11 34.77 17.99
-12 5 -12 65.71 17
-12 5 -12 60.38 19.13
-12 5 -13 56.64 16.73
-5 -12 -13 34.01 19.88
-12 5 -13 49.53 19.4
-12 5 -14 105.94 18.55
-5 -12 -14 114.79 22
-12 5 -14 107.49 21.8
-12 5 -15 135.88 19.04
-12 5 -15 108.31 22.06
-5 -12 -15 162.38 23.17
-5 -12 -16 49.29 20.79
-12 5 -16 48.18 18.4
-12 5 -16 30.57 20.82
-5 -12 -17 -10.32 20.92
-12 5 -17 4.03 17.96
-12 5 -17 23.05 21.32
-5 -12 -18 45.38 21.85
-12 5 -18 61.27 19.52
-12 5 -18 69.13 22.47
-5 -12 -19 66.02 22.93
-12 5 -19 55.47 20.5
-12 5 -19 52.02 23.31
-5 -12 -20 37.66 23.24
-12 5 -20 -7.4 23.75
-5 -12 -21 50.92 24.08
-12 5 -21 23.35 19.85
-5 -12 -22 18.44 24.31
-12 5 -22 17.11 20.6
-12 5 -22 -19.61 24.77
-5 -12 -23 23.52 24.63
-12 5 -23 25.57 21.82
-12 5 -23 41.69 25.86
-6 12 -23 -8.44 28.25
-6 12 -22 6.91 27.44
-12 -6 -22 -8.48 21.12
-12 -6 -21 -34.4 21.76
6 12 21 -43.36 18.76
-6 12 -21 -33.97 28
-6 12 -21 22.54 20.77
-6 12 -20 1.06 20.15
6 12 20 -0.97 17.74
-6 12 -20 51.56 27.01
-12 -6 -20 50.94 21.55
-6 12 -19 32.41 20.48
6 12 19 39.89 18.32
-6 12 -19 33.41 26.29
-12 -6 -19 82.04 21.09
-6 12 -18 11.18 19.44
-6 12 -18 15.06 24.77
6 12 18 26.84 17.41
-12 -6 -18 1.09 19.95
-6 12 -17 30.32 23.61
6 12 17 19.78 16.82
-12 -6 -17 6.33 19
-6 12 -17 29.93 19.13
-6 12 -16 35.41 23.17
6 12 16 52.49 17.28
-12 -6 -16 25.45 18.37
-6 12 -16 36.75 18.86
-6 12 -15 36.62 23.08
-6 12 -15 33.45 18.58
6 12 15 76.85 18.22
-6 12 -14 -5.54 16.85
-12 -6 -14 4.72 17.62
6 12 14 40.01 17.09
-6 12 -13 82.61 18.08
-12 -6 -13 100.47 19.48
6 -12 -13 130.87 19.75
6 12 13 68.25 18.27
-12 -6 -12 58.1 18.01
6 -12 -12 84.32 19.99
-6 12 -12 46.53 17.13
-12 -6 -11 71.17 17.69
6 -12 -11 71.55 19.74
-6 12 -11 64.84 17.57
-12 -6 -10 157.67 19.45
6 -12 -10 182.92 21.96
-6 12 -10 192.58 20.1
-12 -6 -9 86.97 16.78
6 -12 -9 87.76 19.71
-6 12 -9 103.71 17.78
-12 -6 -8 254.3 20.23
6 -12 -8 237.97 25.4
6 -12 -8 240.59 22.71
-6 12 -8 208.94 20.46
6 -12 -7 57.17 20.99
6 -12 -7 65.14 19.18
-12 -6 -7 51.46 14.63
6 -12 -6 36.79 20.37
6 -12 -6 35.47 18
-12 -6 -6 33.78 13.42
6 -12 -5 124.13 21.63
6 -12 -5 100.74 19.66
6 -12 -4 31.2 20.1
6 -12 -4 45.43 17.81
6 -12 -3 28.36 19.4
6 -12 -3 13.59 16.98
6 -12 -2 135.44 19.38
6 -12 -2 112.64 21.69
-6 -12 2 104.13 16.21
6 -12 -1 13.71 16.69
6 -12 -1 19.65 18.97
-6 -12 1 29.62 15.24
-6 -12 0 27.2 14.78
6 -12 0 42.77 17.46
-12 6 -1 37.05 11.2
-6 -12 -1 41.34 15.23
6 -12 1 53.2 18.01
-12 6 -2 158.52 14.66
-6 -12 -2 146.74 18
6 -12 2 121.91 19.54
-12 6 -3 17.54 11.83
-6 -12 -3 -6.02 15.24
6 -12 3 31.06 17.51
-12 6 -4 34.12 12.77
-6 -12 -4 17.33 16.02
6 -12 4 49.23 18.07
-12 6 -5 133.6 15.35
-6 -12 -5 115.21 18.61
6 -12 5 129.07 20.65
-12 6 -6 23.94 13.48
-6 -12 -6 29.19 16.81
6 -12 6 25.79 17.71
-6 -12 -7 71.86 18.32
-12 6 -7 65.5 14.48
-6 12 8 211.07 18.78
-12 6 -8 267.17 19.58
-6 -12 -8 224.3 22.34
-12 6 -9 59.36 15.76
-6 -12 -9 120.06 19.97
-12 6 -10 123.3 17.39
-12 6 -10 138.96 20.37
-6 -12 -10 138.49 20.88
-12 6 -11 62.83 16.57
-12 6 -11 90.73 19.32
-6 -12 -11 59.72 19.79
-12 6 -12 36.46 15.75
-12 6 -12 68.71 19.97
-6 -12 -12 76.25 20.23
-12 6 -13 94.5 17.46
-12 6 -13 43.54 20.28
-6 -12 -13 101.43 20.89
-12 6 -14 -0.89 16.28
-12 6 -14 25.36 20.31
-6 -12 -14 -0.97 19.56
-12 6 -15 77.97 18.58
-12 6 -15 31.41 20.66
-6 -12 -15 111.26 21.98
-12 6 -16 2.89 17.29
-6 -12 -16 41.83 20.88
-12 6 -16 27.43 21.51
-6 -12 -17 45.14 21.51
-12 6 -17 -2.26 21.42
-12 6 -17 8 17.73
-6 -12 -18 31.16 21.71
-12 6 -18 22.3 22.38
-12 6 -18 27.31 18.96
-6 -12 -19 83.69 23.42
-12 6 -19 71.22 24.4
-12 6 -19 5.43 19.95
-6 -12 -20 71.01 23.76
-12 6 -20 69 24.85
-12 6 -20 20.04 20
-12 6 -21 9.13 24.59
-12 6 -21 23.83 20.49
-6 -12 -21 5.75 23.54
-12 6 -22 -9.36 25.16
-6 -12 -22 4.69 23.91
-12 6 -22 -1.15 20.15
-7 12 -22 16.98 28.14
-7 12 -22 19.04 21.45
-7 12 -21 59.89 28.77
-7 12 -21 -7.73 21.04
-7 12 -20 8.12 26.92
-7 12 -20 39.38 21.2
7 12 20 37.88 18.02
-7 12 -19 23.76 26.26
-7 12 -19 28.03 20.84
7 12 19 5.68 17.48
-7 12 -18 26.25 19.83
-7 12 -18 42.64 26.3
7 12 18 41.65 17.91
-12 -7 -18 15.5 20.29
-7 12 -17 30 24.35
7 12 17 20.78 17.04
-12 -7 -17 2.15 19.44
-7 12 -17 4.11 18.93
-7 12 -16 47.51 24.02
7 12 16 23.81 16.88
-12 -7 -16 42.62 19.73
-7 12 -16 21.92 18.71
-7 12 -15 69.81 24.23
-7 12 -15 40.22 19.04
7 12 15 79.24 18.17
-12 -7 -15 81.22 20.17
-7 12 -14 57.55 19.04
7 12 14 98.21 18.33
-12 -7 -14 40.57 18.73
-7 12 -13 21.27 17.4
7 12 13 48.97 17.42
-12 -7 -13 23.19 17.6
-7 12 -12 101.54 18.38
-12 -7 -12 102.93 19.02
7 -12 -11 143.64 20.55
-7 12 -11 142.75 19.32
-12 -7 -11 108.56 19.13
-7 12 -10 64.19 17.4
7 -12 -10 84.35 20
-7 12 -9 36.17 16.09
7 -12 -9 13.65 18.49
7 -12 -9 22.96 21.13
-7 12 -8 29.28 15.67
7 -12 -8 32.77 18.68
7 -12 -8 33.28 20.71
-7 12 -7 39.64 15.51
7 -12 -7 31.74 20.7
7 -12 -7 7.88 18.14
7 -12 -6 18.03 20.42
7 -12 -6 23.44 18.31
7 -12 -5 87.19 21.68
7 -12 -5 143.44 20.33
7 -12 -4 135.9 19.83
7 -12 -4 87.85 21.88
7 -12 -3 103.74 19.86
7 -12 -3 111.94 21.3
7 -12 -2 56.82 18.47
7 -12 -2 59.06 20.27
7 -12 -1 28.15 17.53
7 -12 -1 -12.41 19.55
7 -12 0 22.08 17.62
-7 -12 0 39.75 14.99
-12 7 0 19.88 11.32
7 -12 1 4 17.55
-7 -12 -1 22.58 15.35
-12 7 -1 3.82 10.86
7 -12 2 88.56 19.25
-7 -12 -2 56.88 16.22
-12 7 -2 59.61 13.18
7 -12 3 119.24 19.95
-7 -12 -3 120.65 18.01
-12 7 -3 113.16 14.44
7 -12 4 145.53 20.67
-12 7 -4 149.86 15.82
-7 -12 -4 129.16 18.6
-12 7 -5 141.09 15.91
7 -12 5 111.59 20.41
12 -7 -5 149.9 19.74
-7 -12 -5 120.4 18.54
-7 -12 -6 9.05 17.19
12 -7 -6 36.2 17.27
-12 7 -6 26.57 13.83
-12 7 -7 5.63 14.01
-7 -12 -7 0.79 17.67
-12 7 -8 18.3 13.97
-7 -12 -8 31.63 18.01
-12 7 -9 19.9 14.87
-7 -12 -9 21.7 18.22
-7 -12 -10 64.01 19.97
-12 7 -10 61.83 16.11
-12 7 -11 119.1 21
-7 -12 -11 125.42 21.35
-12 7 -11 101.93 17.61
-12 7 -12 88.51 20.8
-7 -12 -12 121.31 21.38
-12 7 -12 103.2 18.28
-12 7 -13 29.32 20.03
-7 -12 -13 43.83 20.63
-12 7 -13 3.54 16.5
-12 7 -14 13.66 20.24
-12 7 -14 51.97 17.57
-7 -12 -14 46.15 20.56
-12 7 -15 53.75 21.92
-12 7 -15 40.51 17.45
-7 -12 -15 65.67 20.92
-12 7 -16 4.51 21.25
-12 7 -16 43.85 17.82
-7 -12 -16 54.01 21.25
-12 7 -17 1.18 21.95
-7 -12 -17 7.48 20.67
-12 7 -17 7.08 17.59
-12 7 -18 30.31 19.15
-7 -12 -18 44.88 22.52
-12 7 -18 42.31 23.41
-12 7 -19 15.31 19.63
-7 -12 -19 8.98 22.6
-12 7 -19 11.25 23.85
-12 7 -20 23.74 20.76
-7 -12 -20 49.35 23.88
-12 7 -20 39.72 24.36
-12 7 -21 35.89 21.39
-7 -12 -21 26.94 23.45
-12 7 -21 -1.33 25.49
-12 7 -22 -8.23 21.22
-7 -12 -22 32.19 24.86
-12 7 -22 1.37 25.77
-8 12 -22 -6.91 21.44
-8 12 -21 -7.95 21.47
-8 12 -21 45.75 28.62
-8 12 -20 3.36 20.86
-8 12 -20 -4.16 27.33
-8 12 -19 18.82 20.43
-8 12 -19 27.2 26.54
8 12 18 5.56 17.42
-8 12 -18 -9.73 20.09
-8 12 -18 -3.98 25.29
8 12 17 13.6 16.39
-8 12 -17 -7.37 18.87
-8 12 -17 39.85 24.9
8 12 16 30.59 17.44
-8 12 -16 12.37 18.62
-8 12 -16 -2.51 23.92
8 12 15 41.88 17.7
-8 12 -15 13.05 18.8
-8 12 -15 30.49 23.96
8 12 14 47.89 17.84
-8 12 -14 34.51 18.65
-8 12 -13 95.26 19.47
-8 12 -12 49.04 18.03
-8 12 -11 101.85 18.5
-8 12 -10 123.29 18.76
8 -12 -10 116.51 24.84
-8 12 -9 24.81 16.08
8 -12 -9 12.25 21.45
8 -12 -9 11.41 19.52
-8 12 -8 122.68 17.93
8 -12 -8 118.34 23.8
8 -12 -8 94.36 21.33
-8 12 -7 25.94 15.92
8 -12 -7 8.91 20.8
8 -12 -7 36.77 19.09
8 -12 -6 197.24 22.27
8 -12 -6 155.56 24.15
-8 12 -6 166.23 18.88
8 -12 -5 76.01 21.57
8 -12 -5 107.2 20.16
8 -12 -4 89.07 22.47
8 -12 -4 56.76 19.09
8 -12 -3 278.45 26.39
8 -12 -3 358.13 25.81
8 -12 -2 111.03 22.41
8 -12 -2 139.38 20.59
8 -12 -1 158.41 21.23
8 -12 0 12.28 18.59
-12 8 0 11.29 11.88
8 -12 1 148.85 21.34
-12 8 -1 139.61 14.54
8 -12 2 98.15 20.48
-12 8 -2 123.52 14.75
-8 -12 -2 97.92 16.66
-8 -12 -3 346.54 23.25
8 -12 3 279.55 25.18
-12 8 -3 337.68 20.62
-8 -12 -4 55.82 17.47
8 -12 4 34.47 19.48
-12 8 -4 78.51 14.21
-8 -12 -5 87.55 18.39
12 -8 -5 108.45 19.76
-12 8 -5 90 15.21
-8 -12 -6 149.28 19.95
12 -8 -6 160.43 20.84
-12 8 -6 121.88 16.19
-8 -12 -7 11.15 17.76
12 -8 -7 41.85 18.45
-12 8 -7 -4.43 14.15
-8 -12 -8 94.24 19.43
12 -8 -8 88.16 18.8
-12 8 -8 104.4 16.66
-8 -12 -9 19.5 18.28
-12 8 -9 13.37 14.8
-8 -12 -10 127.7 21.77
-12 8 -10 121.87 18.15
-12 8 -11 116.19 18.31
-8 -12 -11 133.2 21.32
-12 8 -12 80.73 21.09
-8 -12 -12 63.96 20.15
-12 8 -12 71.5 17.86
-8 -12 -13 61.94 20.84
-12 8 -13 91.1 22.18
-12 8 -13 61.41 17.8
-8 -12 -14 33.96 20.35
-12 8 -14 10.95 21.24
-12 8 -14 36.74 17.21
-8 -12 -15 -27.79 20.86
-12 8 -15 13.64 21.72
-12 8 -15 3.86 17.04
-8 -12 -16 13.77 20.45
-12 8 -16 16.47 22.63
-12 8 -16 18.89 18.16
-8 -12 -17 9.8 21.29
-12 8 -17 -12.09 22.05
-12 8 -17 4.1 18.39
-8 -12 -18 16.75 22.19
-12 8 -18 -1.06 19.41
-12 8 -18 -6.31 23.52
-12 8 -19 39.35 19.93
-8 -12 -19 78.92 24.24
-12 8 -20 2.27 20.22
-12 8 -20 23.85 25.05
-8 -12 -20 45.63 24.31
-12 8 -21 25.84 21.69
-12 8 -21 -17.57 25.39
-8 -12 -21 39.38 24.34
-9 12 -21 10.44 21.55
-9 12 -21 62.7 29.41
-9 12 -20 50.28 21.78
-9 12 -20 -25.52 27.4
-9 12 -19 61.08 21.83
-9 12 -19 6.95 27.07
-9 12 -18 17.79 20.85
-9 12 -18 51.67 27.06
-9 12 -17 18.35 20.09
-9 12 -17 -5.28 24.93
9 12 16 27.38 17.1
-9 12 -16 37.4 24.89
-9 12 -16 35.95 19.7
9 12 15 24.5 17.38
-9 12 -15 1.25 23.37
-9 12 -15 -1.02 18.26
9 12 14 84.77 18.55
-9 12 -14 73.58 19.53
-9 12 -14 59.19 24.53
-9 12 -13 34.48 18.14
-9 12 -12 -10.43 16.81
9 -12 -12 -1.11 22.66
-9 12 -11 22.15 16.98
9 -12 -11 70.12 23.94
-9 12 -10 83.87 17.89
9 -12 -10 92.3 23.91
-9 12 -9 25.41 16.34
9 -12 -9 27.08 22.88
-9 12 -8 168.75 19.48
9 -12 -8 183.16 25.81
-9 12 -7 123.11 17.97
9 -12 -7 113.5 24.34
9 -12 -7 106.9 21.36
-9 12 -6 109.92 17.37
9 -12 -6 61.89 22.37
9 -12 -6 95.22 21.01
-9 12 -5 79.71 16.4
9 -12 -5 124.07 23.26
9 -12 -5 62.11 19.68
9 -12 -4 15.53 21.37
9 -12 -4 28.64 19.42
9 -12 -3 22.69 20.13
9 -12 -3 51.82 19.57
9 -12 -2 93.75 20.54
9 -12 -1 36.06 18.87
-12 9 0 40.67 12.5
9 -12 0 80.76 20.29
-12 9 -1 7.5 12.57
9 -12 1 31.7 19.1
-12 9 -2 109.1 14.99
9 -12 2 129.74 21.57
-12 9 -3 43.05 13.35
9 -12 3 23.69 19.67
-9 -12 -4 42.84 16.68
-12 9 -4 17.23 13.48
-9 -12 -5 71.99 17.98
12 -9 -5 100.77 20.32
-12 9 -5 64.76 15.01
-9 -12 -6 63.67 18.55
12 -9 -6 86.62 20.82
-12 9 -6 75.09 15.31
-9 -12 -7 147.39 20.32
12 -9 -7 182.85 22.55
-12 9 -7 122.15 16.94
-9 -12 -8 199.96 21.92
12 -9 -8 163 22.4
-12 9 -8 176.5 18.89
-9 -12 -9 31.89 18.67
12 -9 -9 60.01 19.37
-12 9 -9 23.9 15.27
-9 -12 -10 85.98 20.75
12 -9 -10 79.75 19.73
-12 9 -10 89.59 16.93
-9 -12 -11 24.07 19.92
-12 9 -11 -0.88 15.78
-9 -12 -12 3.82 19.23
-12 9 -12 20.6 21.06
-12 9 -12 3.63 16.25
-9 -12 -13 28.62 20.31
-12 9 -13 -8.87 21.21
-12 9 -13 42.32 17.63
-9 -12 -14 98.81 22.02
-12 9 -14 95.17 23.59
-12 9 -14 65.21 18.92
-9 -12 -15 9.46 20.69
-12 9 -15 16.51 22.64
-12 9 -15 18.96 18.36
-9 -12 -16 57.27 21.99
-12 9 -16 23.24 22.77
-12 9 -16 28.57 18.46
-9 -12 -17 51.04 22.76
-12 9 -17 33.89 23.86
-12 9 -17 24.08 19.04
-9 -12 -18 34.16 23.23
-12 9 -18 25.84 24.32
-12 9 -18 -1.08 19.43
-9 -12 -19 26.83 23.51
-12 9 -19 -28.88 20.67
-12 9 -19 14.72 25.28
-12 9 -20 -11.4 20.76
-12 9 -20 31.29 25.88
-9 -12 -20 35.76 24.19
-12 9 -21 -14.17 21.29
-12 9 -21 8.38 27.06
-9 -12 -21 25.51 24.09
-10 12 -20 47.82 22.74
-10 12 -20 1.44 28.15
-10 12 -19 -4.62 21.09
-10 12 -19 4.26 27.16
-10 12 -18 30.69 21.18
-10 12 -18 1.39 26.97
-10 12 -17 -1.11 20.12
-10 12 -17 36.44 27.07
-10 12 -16 28.02 19.86
-10 12 -16 33.01 25.32
-10 12 -15 11.56 23.72
10 12 15 -9.19 16.83
-10 12 -15 46.43 19.87
-10 12 -14 65.83 24.94
-10 12 -14 25.57 18.55
10 12 14 56.55 18.11
10 -12 -13 -24 24.48
-10 12 -13 12.08 17.74
10 -12 -12 4.49 23.74
-10 12 -12 1.96 17.02
10 -12 -11 84.6 25.03
-10 12 -11 78.42 18.39
10 -12 -10 59.53 24
-10 12 -10 47.72 17.33
10 -12 -9 58.6 23.87
-10 12 -9 54.99 17.04
10 -12 -8 6.24 22.27
-10 12 -8 21.8 15.48
10 -12 -7 39.33 22.76
-10 12 -7 34.78 16.11
10 -12 -6 88.76 23.43
-10 12 -6 85.89 17.18
10 -12 -6 37.78 20.41
10 -12 -5 -19.09 21.35
-10 12 -5 28.95 14.85
10 -12 -5 11.77 19.53
10 -12 -4 154.3 23.36
-10 12 -4 80.9 16.53
10 -12 -4 84.53 20.58
10 -12 -3 -16.59 21.05
10 -12 -3 -9.37 19.05
10 -12 -2 25.88 20.46
10 -12 -1 -17.4 20.42
-12 10 0 140.61 15.85
10 -12 0 115.84 22.25
-12 10 -1 15.85 13.05
10 -12 1 33.79 19.68
-12 10 -2 48.84 14.48
10 -12 2 29.54 19.82
-12 10 -3 5.64 13.57
-12 10 -4 95.72 15.4
-12 10 -5 39.11 14.84
12 -10 -5 28.07 20.6
-12 10 -6 68.9 15.54
12 -10 -6 101.21 22.41
-10 -12 -6 92.54 18.49
-12 10 -7 45.54 15.5
12 -10 -7 102.08 22.09
-10 -12 -7 72.17 18.89
-12 10 -8 29.75 15.59
12 -10 -8 17.37 21.01
-10 -12 -8 58.99 18.65
-12 10 -9 67.24 16.82
12 -10 -9 21.36 19.99
-10 -12 -9 92.11 20.52
-12 10 -10 12.41 15.89
12 -10 -10 67.61 20.81
-10 -12 -10 61.9 19.78
-12 10 -11 53.51 17.07
12 -10 -11 54.16 20.83
-10 -12 -11 110.12 21.19
-12 10 -12 23.59 17.4
-10 -12 -12 16.51 19.91
-12 10 -13 -5.85 22.09
-12 10 -13 -29.02 17.72
-10 -12 -13 8.04 19.47
-12 10 -14 16.76 22.93
-12 10 -14 26.01 17.97
-10 -12 -14 30.11 21.1
-12 10 -15 17.25 23.17
-12 10 -15 10.32 18.59
-10 -12 -15 28.9 21.06
-12 10 -16 16.44 24.21
-12 10 -16 3.17 18.96
-10 -12 -16 33.05 22.6
-12 10 -17 22.32 24.45
-12 10 -17 37.68 20.15
-10 -12 -17 14.7 22.7
-12 10 -18 52.09 25.59
-12 10 -18 -16.51 19.66
-10 -12 -18 4.64 22.73
-12 10 -19 -16.49 25.72
-12 10 -19 28.2 20.53
-10 -12 -19 1.19 22.87
-12 10 -20 44.97 27.07
-12 10 -20 26.67 20.72
-10 -12 -20 15.76 23.83
-11 12 -19 44.27 20.95
-11 12 -19 -1.44 27.42
-11 12 -18 32.28 21.12
-11 12 -18 -32.61 27.09
-11 12 -17 9.06 20.21
-11 12 -17 13.75 25.93
-11 12 -16 65.01 20.78
11 -12 -16 18.41 24.61
-11 12 -16 53.93 26.05
11 -12 -15 -24.03 25.85
-11 12 -15 15.04 19.69
-11 12 -15 -7.88 25.04
11 -12 -14 -33 25.38
-11 12 -14 -2.09 18.64
-11 12 -14 37.56 24.33
11 -12 -13 3.47 24.45
-11 12 -13 42.89 18.88
-12 -11 -13 -5.06 19.97
11 -12 -12 34.14 24.64
-11 12 -12 50.14 18.66
-12 -11 -12 40.97 20.55
11 -12 -11 2.25 24.06
-11 12 -11 42.76 18.2
-12 -11 -11 30 19.57
11 -12 -10 1.1 23.14
-11 12 -10 50.69 17.43
-12 -11 -10 30.64 18.63
-11 12 -9 59.29 17.17
11 -12 -9 33.36 22.48
-11 12 -8 124.58 18.67
11 -12 -8 114.57 24.66
-11 12 -7 15.6 15.35
11 -12 -7 27.42 22.86
-11 12 -6 17.71 15.57
11 -12 -6 32.18 22.7
-11 12 -5 24.03 15.63
11 -12 -5 51.75 22.46
-11 12 -4 29.64 15.09
11 -12 -4 5.03 21.8
11 -12 -4 38.64 20.85
-11 12 -3 13.26 14.62
11 -12 -3 28.34 20.07
11 -12 -2 4.45 19.58
11 -12 -1 37.79 20.51
11 -12 0 29.91 20.98
-12 11 -1 12.71 13.35
-12 11 -2 13.08 13.8
-12 11 -3 12.06 14.12
-12 11 -4 15.37 14.11
12 -11 -5 37.86 21.23
-12 11 -5 41.91 15.41
12 -11 -6 18.81 21.49
-12 11 -6 6.55 15.15
12 -11 -7 49.4 22.46
-12 11 -7 22.6 14.87
-11 -12 -8 84.61 19.71
12 -11 -8 123.27 23.71
-12 11 -8 78.7 17.14
-11 -12 -9 39.17 19.21
12 -11 -9 88.65 23.1
-12 11 -9 34.83 16.78
-11 -12 -10 12 19.29
12 -11 -10 8.41 21.4
-12 11 -10 32.48 17.13
12 -11 -11 9.7 20.86
-11 -12 -11 12.41 19.75
-12 11 -11 14.24 17.02
12 -11 -12 -9.9 20.78
-11 -12 -12 21.73 19.94
-12 11 -12 17.48 17.48
-11 -12 -13 11.25 20.46
-12 11 -13 -8.61 23.58
-12 11 -13 25.19 18.12
-11 -12 -14 20.07 21.25
-12 11 -14 54.98 24.1
-12 11 -14 35 18.8
-11 -12 -15 37.04 22.4
-12 11 -15 10.29 23.61
-12 11 -15 21.24 18.68
-11 -12 -16 63.9 23.69
-12 11 -16 11.84 24.81
-12 11 -16 59.02 20.85
-11 -12 -17 20.73 22.31
-12 11 -17 9.47 25.48
-12 11 -17 -16.7 19.72
-11 -12 -18 -7.07 22.98
-12 11 -18 11.09 25.73
-12 11 -18 30.5 20.34
-11 -12 -19 61.48 24.51
-12 11 -19 -1.41 26.04
-12 11 -19 41.48 21.77
12 -12 -1 23.13 21.26
-12 12 -1 12.1 14.35
12 -12 -2 46.92 21.44
-12 12 -2 23.94 15.06
-12 12 -3 123.84 17.64
-12 12 -4 32.75 15.64
12 -12 -5 35.24 23.19
-12 12 -5 35.16 15.68
12 -12 -6 39.72 23.48
-12 12 -6 25.81 16.32
12 -12 -7 -6.42 23.51
-12 12 -7 15.12 16.06
12 -12 -8 57.56 24.29
-12 12 -8 -8.15 16.02
12 -12 -9 77.4 24.72
-12 12 -9 48.47 17.27
12 -12 -10 -2.23 23.05
-12 12 -10 9.64 16.76
12 -12 -11 11.29 23.35
-12 -12 -11 4.84 19.54
-12 12 -11 16.92 17.23
12 -12 -12 -17.35 23.24
-12 -12 -12 30.12 20.64
-12 12 -12 16.26 18.08
-12 -12 -13 96.61 22.84
-12 12 -13 62.15 19.52
-12 -12 -14 62.22 22.69
-12 12 -14 67.06 25.62
-12 12 -14 33.17 19.21
-12 12 -15 34.78 25.21
-12 12 -15 12.01 19.15
-12 -12 -15 79.64 23.62
-12 12 -16 -16.42 26.49
-12 12 -16 5.62 19.88
-12 -12 -16 11.39 22.28
-12 12 -17 -20.95 26.33
-12 12 -17 8.06 20.39
-12 -12 -17 -5.84 22.73
-12 12 -18 -1.44 27.24
-12 -12 -18 40.7 23.66
-12 12 -18 -9.32 20.84
0 -13 0 2.9 16.54
0 -13 0 18.36 16.17
0 -13 1 12.09 16.09
0 -13 -1 33.29 17.2
0 -13 1 -12.34 16.61
0 -13 -1 -5.15 16.38
0 -13 -2 246.19 21.74
0 -13 2 220.9 21.42
0 -13 -2 237.09 21.57
0 -13 -3 13.07 17.23
0 -13 3 20.23 16.67
0 -13 -3 12.04 16.67
0 -13 -4 34.37 18.23
0 -13 4 28.27 17.05
0 -13 -4 23.63 16.95
0 -13 5 14.53 16.48
0 -13 -5 17.71 16.82
-13 0 -5 -0.57 12.63
0 -13 -5 -4.01 17.88
-13 0 -6 12.15 12.77
0 -13 -6 12.52 17.49
0 -13 6 19.83 17.17
-13 0 -7 610.45 29.65
0 -13 -7 625.62 32.71
0 -13 7 564.5 31.55
0 13 8 -3.47 15.17
0 -13 -8 0.8 17.61
0 -13 8 32.49 17.48
-13 0 -8 25.83 14.49
0 13 9 95.63 17.38
-13 0 -9 126.54 16.7
0 -13 9 105.21 19.08
0 -13 -9 94.68 19.87
0 13 10 36.58 16.48
0 -13 -10 7.54 17.72
-13 0 -10 11.28 15.4
0 13 11 37.22 16.12
0 -13 -11 28.32 18.5
-13 0 -11 14.98 15.3
0 13 -11 -20.06 14.82
0 13 12 1.55 15.45
0 -13 -12 22.03 18.63
-13 0 -12 19.83 15.89
0 13 -12 9.86 15.38
0 -13 -13 27.9 19.58
-13 0 -13 34.45 17.37
0 13 13 81.28 17.35
0 -13 -14 100.29 21.22
-13 0 -14 102.3 18.67
0 13 14 91.21 18.36
0 -13 -15 153.93 22.98
-13 0 -15 203.16 21.92
0 13 15 156.49 20.28
0 -13 -16 0.97 19.97
-13 0 -16 8.79 17.35
0 13 16 1.81 17.13
0 -13 -17 32.76 21.85
-13 0 -17 78.45 19.89
0 13 17 73.8 18.99
0 -13 -18 26.42 21.25
-13 0 -18 47.55 20.03
0 13 18 12.86 18.27
0 -13 -19 26.93 21.93
-13 0 -19 33.64 19.66
0 -13 -20 -8.46 22.85
-13 0 -20 1.11 20.2
0 -13 -21 1.07 23.09
-13 0 -21 15.96 20.78
0 -13 -22 -4.36 22.67
-13 0 -22 26.68 20.99
-13 0 -23 -2.36 20.61
-13 -1 -23 -4.75 20.67
-13 -1 -22 -3.49 20.34
-13 -1 -21 34 20.56
1 -13 -20 -88.75 23.94
-13 -1 -20 6.64 19.86
1 -13 -19 -3.04 21.56
-13 -1 -19 26.98 19.65
1 13 19 12.22 18.95
1 -13 -18 8.92 20.87
-13 -1 -18 -11.56 19
1 13 18 37.09 18.55
1 -13 -17 45.56 21.33
-13 -1 -17 78.49 20.17
1 13 17 83.36 18.98
1 -13 -16 -14.24 20.27
-13 -1 -16 28.69 18.42
1 13 16 27.05 17.09
1 13 15 23.47 17.06
1 -13 -15 66.24 20.78
-13 -1 -15 40.14 18.38
-1 13 -15 38.24 20.97
-1 13 -14 11.38 21.06
1 13 14 64.59 17.66
1 -13 -14 56.61 20.36
-13 -1 -14 46.09 17.99
-1 13 -14 5.72 16.35
1 13 13 7.28 16.38
1 -13 -13 15.13 19.45
-13 -1 -13 14.05 16.69
-1 13 -13 1.6 16.39
1 13 12 13.26 15.77
1 -13 -12 13.05 18.33
-13 -1 -12 18.43 16.26
-1 13 -12 44.38 16.41
1 13 11 38.4 16.27
1 -13 -11 11.94 17.8
-13 -1 -11 37.5 15.8
-1 13 -11 -16.2 15.37
-1 -13 10 99.89 18.67
1 13 10 122.72 17.94
-13 -1 -10 99.94 16.73
1 -13 -10 69.52 19.19
-13 -1 -9 227.82 19.68
1 13 9 245.06 20.82
-1 -13 9 203.38 21.41
1 -13 -9 224.14 22.55
-1 -13 8 10.96 17.04
1 -13 -8 71.5 18.5
-13 -1 -8 74.19 15.44
-1 -13 7 164.26 19.13
-13 -1 -7 111.73 16.39
1 -13 -7 173.24 20.53
-13 -1 -6 28.38 12.8
1 -13 -6 32.24 17.64
-1 -13 6 34.07 16.98
1 -13 -5 90.15 18.64
1 -13 -5 90.17 19.84
-1 -13 5 112.24 18.21
1 -13 -4 140.62 19.98
1 -13 -4 137.85 20.63
-1 -13 4 138.8 19.06
1 -13 -3 20.45 16.74
-1 -13 3 14.75 16.3
1 -13 -3 2.39 17.41
-1 -13 2 -1.42 16.29
1 -13 -2 42.08 17.04
1 -13 -2 36.05 17.69
-1 -13 1 5.74 16.38
1 -13 -1 6.77 16.68
-1 -13 1 10.79 16.15
1 -13 -1 26.26 18.03
1 -13 0 304.02 23.43
-1 -13 0 330.99 23.39
-1 -13 0 312.31 23.14
1 -13 0 322.12 23.93
1 -13 1 8.11 16.04
-1 -13 -1 20.31 16.35
-1 -13 -1 -8.48 16.57
-1 -13 -2 55.15 16.83
-1 -13 -2 10.71 16.62
1 -13 2 54.56 17.26
-1 -13 -3 37.3 17.1
-1 -13 -3 11.78 16.87
1 -13 3 14.84 16.32
-1 -13 -4 139.63 19.34
-1 -13 -4 121.84 19.42
1 -13 4 136.5 19.12
-13 1 -5 100.27 14.44
1 -13 5 128.8 19.2
-1 -13 -5 90.93 18.3
-13 1 -6 38.84 13.6
-1 -13 -6 78.68 18.35
1 -13 6 39.49 18.09
-13 1 -7 156.7 17.44
-1 13 7 169.09 17.84
-1 -13 -7 148.73 20.03
1 -13 7 152.37 20.3
-13 1 -8 52.15 15.07
-1 13 8 36.14 14.77
-1 -13 -8 21.83 18.49
1 -13 8 54.79 18.07
-13 1 -9 232.41 19.54
-1 13 9 209.24 19.29
-1 -13 -9 221.57 22.45
1 -13 9 193.31 21.67
-1 13 10 76.61 16.62
-13 1 -10 88.42 16.88
-1 -13 -10 61.82 19.37
-1 13 11 37 16.34
-13 1 -11 -0.79 15.42
-1 -13 -11 7.8 18.17
-1 13 12 39.35 15.99
-13 1 -12 36.26 15.74
-1 -13 -12 5.33 18.47
-1 13 13 31.33 16.93
-13 1 -13 24.15 16.89
-1 -13 -13 36.55 19.38
-1 13 14 13.39 16.67
-13 1 -14 -4.47 16.94
-1 -13 -14 31.97 20.06
-1 13 15 51.53 18.04
-13 1 -15 37.19 17.58
-1 -13 -15 63.63 21.23
-1 13 16 40.26 18.14
-13 1 -16 25.1 17.77
-1 -13 -16 13.82 20.2
-1 13 17 84.38 19.42
-13 1 -17 84.89 19.53
-1 -13 -17 87.69 22.53
-13 1 -18 19.04 21.15
-13 1 -18 3.11 18.8
-1 -13 -18 19.54 21.61
-13 1 -19 54 22.99
-13 1 -19 13.98 19.43
-1 -13 -19 55.62 22.73
-13 1 -20 -3.43 22.39
-13 1 -20 -12.3 19.97
-1 -13 -20 17.13 23.13
-13 1 -21 47.38 24.33
-13 1 -21 10.32 20.65
-1 -13 -21 -2.18 22.79
-13 1 -22 24.64 23.91
-13 1 -22 36.26 21.57
-1 -13 -22 -33.27 23.9
-13 1 -23 33.05 24.13
-13 1 -23 -27.37 21.42
-1 -13 -23 4.5 24.51
-13 -2 -23 16.62 21.26
-13 -2 -22 57.11 21.41
-13 -2 -21 65.02 21.6
-13 -2 -20 33.34 20.46
-13 -2 -19 -16.22 19.56
2 -13 -19 -58.84 18.38
2 13 19 -27.22 19.2
2 13 18 42.66 19.24
-2 13 -18 80.09 25.37
-13 -2 -18 103.84 21.11
2 -13 -18 38.2 20.68
2 13 17 21.45 17.77
-2 13 -17 73.21 24.2
-13 -2 -17 22.33 18.41
2 -13 -17 52.8 20.93
2 13 16 78.49 18.22
2 -13 -16 31.93 20.74
-2 13 -16 14.78 21.69
-13 -2 -16 26.58 17.93
-13 -2 -15 10.45 17.36
2 13 15 6.1 16.64
2 -13 -15 16.53 19.94
-2 13 -15 31.64 21.53
-2 13 -15 25.02 17.57
-13 -2 -14 232.33 22.01
2 13 14 196.43 20.67
2 -13 -14 220.17 24.04
-2 13 -14 191.55 25.18
-2 13 -14 175.82 20.75
-2 13 -13 71.47 17.72
2 -13 -13 36.36 19.67
-13 -2 -13 45 17.8
2 13 13 52.94 16.87
-2 13 -12 24.62 16.42
2 -13 -12 26.93 18.8
-13 -2 -12 14.36 16.62
2 13 12 50.67 17.21
-2 13 -11 101.84 17.22
-13 -2 -11 82.51 17.32
2 -13 -11 64.53 19.34
2 13 11 90.32 17.52
-13 -2 -10 145.27 18.23
2 -13 -10 137.84 20.88
2 13 10 148.19 19.07
2 -13 -9 76.69 18.71
-13 -2 -9 47.12 16.13
-2 -13 8 65.48 17.37
-13 -2 -8 85.64 15.93
2 -13 -8 111.75 19.83
-2 -13 7 165.2 19.77
-13 -2 -7 184.4 18.12
2 -13 -7 180.91 21.38
-2 -13 6 273.8 21.65
2 -13 -6 224.74 23.88
-13 -2 -6 248.83 18.53
2 -13 -6 239.11 22.7
2 -13 -5 133.89 21.42
-2 -13 5 110.82 18.08
2 -13 -5 94.84 19.31
2 -13 -4 -1.69 18.23
-2 -13 4 22.72 16.5
2 -13 -4 1.55 16.85
2 -13 -3 80.71 19.82
-2 -13 3 79.17 17.46
2 -13 -3 44.5 17.92
2 -13 -2 326.65 25.52
-2 -13 2 321.99 23.14
2 -13 -2 312.88 23.65
2 -13 -1 86.41 18.06
-2 -13 1 92.76 17.42
-2 -13 1 80.27 16.57
2 -13 -1 39.45 18.73
-2 -13 0 43.29 16.72
2 -13 0 12.05 16.73
2 -13 0 11.74 17.58
-2 -13 0 5.88 15.46
-2 -13 -1 59.6 17.18
2 -13 1 62.39 18.17
-2 -13 -1 50.38 16.88
-2 -13 -2 248.49 22.02
2 -13 2 285.14 22.9
-2 -13 -2 264.55 21.61
-2 -13 -3 60.63 17.48
-2 -13 -3 37.85 17.06
2 -13 3 38.64 17.1
-2 -13 -4 -6.01 16.58
-2 -13 -4 41.7 17.19
2 -13 4 39.66 17.35
-13 2 -4 9.34 11.95
-13 2 -5 105.16 14.07
-2 13 5 103.96 15.58
2 -13 5 138.4 19.61
-2 -13 -5 111.2 19.3
-13 2 -6 192.56 17.93
-2 13 6 253.57 19
2 -13 6 225.7 22.44
-2 -13 -6 273.55 22.45
-13 2 -7 149.83 16.64
-2 13 7 196.13 17.94
2 -13 7 178.6 20.93
-2 -13 -7 164.76 20.9
-13 2 -8 110.7 16.24
-2 13 8 106.62 16.22
2 -13 8 122.42 19.74
-2 -13 -8 72.22 19
-2 -13 -9 25.86 18.46
-13 2 -9 62 15.64
2 -13 9 48.33 18.75
-2 13 9 58.68 15.37
-13 2 -10 195.07 19.22
-2 -13 -10 171.43 21.76
-2 13 10 150.33 17.74
-13 2 -11 69.53 16.94
-2 -13 -11 101.17 20.1
-2 13 11 55.34 16.5
-13 2 -12 23.52 16.37
-2 13 12 12.33 15.91
-2 -13 -12 24.5 19.57
-2 13 13 48.28 16.69
-13 2 -13 34.9 18.45
-13 2 -13 28.79 16.84
-2 -13 -13 28.82 19.83
-2 13 14 162.91 20.33
-13 2 -14 167.16 22.29
-13 2 -14 163.41 20.55
-2 -13 -14 177.26 23.54
-2 13 15 6.2 17.43
-13 2 -15 2.85 18.95
-13 2 -15 31.62 17.85
-2 -13 -15 -2.93 20.05
-13 2 -16 26.8 20.21
-13 2 -16 40.61 17.8
-2 -13 -16 2 20.37
-13 2 -17 39.35 20.98
-13 2 -17 29.88 18.3
-2 -13 -17 45.1 21.75
-13 2 -18 61.42 22.09
-13 2 -18 94.88 20.58
-2 -13 -18 74.56 23.04
-13 2 -19 2.25 21.91
-13 2 -19 -1.06 19.04
-2 -13 -19 -21.47 22.57
-13 2 -20 2.33 22.41
-13 2 -20 48.25 20.51
-2 -13 -20 3.28 22.92
-13 2 -21 67.46 23.98
-13 2 -21 9.08 20.18
-2 -13 -21 65.81 24.61
-13 2 -22 33.45 24.66
-13 2 -22 18.75 21.07
-2 -13 -22 39.68 24.52
-13 2 -23 17.93 25.2
-13 2 -23 23.99 22.4
-2 -13 -23 23 25.1
-13 -3 -22 8.27 20.53
-3 13 -21 92.06 28.83
-13 -3 -21 88.3 21.94
3 13 20 3.11 18.35
-3 13 -20 54.74 27.05
-13 -3 -20 17.84 19.7
3 13 19 1 18.17
-3 13 -19 44.3 25.74
-13 -3 -19 -18.45 19.8
3 13 18 43.35 18.92
-3 13 -18 51.72 25.91
-13 -3 -18 56.97 20.43
-13 -3 -17 8.19 18.41
3 13 17 -9.35 17.24
3 -13 -17 -31.24 20.1
-3 13 -17 54.19 24.27
-3 13 -17 24.37 19
-13 -3 -16 39.61 18.49
3 13 16 12.66 17.08
3 -13 -16 -14.02 19.71
-3 13 -16 11 22.92
-3 13 -16 66.63 18.92
-13 -3 -15 2.86 17.13
3 13 15 -6.14 16.52
3 -13 -15 28.39 20.15
-3 13 -15 2.12 21.41
-3 13 -15 -12.56 16.8
-3 13 -14 71.35 18.61
3 -13 -14 23.35 19.99
-13 -3 -14 65.22 18.28
3 13 14 33.11 16.63
-3 13 -13 152.97 20.52
3 -13 -13 214.38 23.6
-13 -3 -13 198.24 21.42
3 13 13 201.87 20.8
-3 13 -12 20.32 16.58
3 -13 -12 51.61 19.49
-13 -3 -12 32.91 17.16
3 13 12 57.33 17.44
-3 13 -11 119.51 18.8
3 13 11 134 18.48
-13 -3 -11 115.3 17.65
3 -13 -11 96.64 20.51
3 -13 -10 45.59 18.98
-3 13 -10 5.7 15.6
-13 -3 -10 23.79 15.7
-13 -3 -9 6.55 15.08
3 -13 -9 15.78 18.08
-13 -3 -8 34.43 14.78
3 -13 -8 55.72 18.12
-3 -13 7 5.35 15.76
-13 -3 -7 25.3 13.96
3 -13 -7 16.25 18.23
3 -13 -6 94.91 21.06
-3 -13 6 39.29 16.57
3 -13 -6 80.66 19.05
3 -13 -5 242.72 24.24
-3 -13 5 171.03 20.3
3 -13 -5 228.17 22.2
3 -13 -4 27.11 19.3
-3 -13 4 3.34 15.85
3 -13 -4 39.21 18.05
3 -13 -3 316.59 25.73
-3 -13 3 322.88 23.31
3 -13 -3 291.8 24.2
-3 -13 2 129.94 18.22
3 -13 -2 135.46 19.27
3 -13 -2 84.24 20.71
3 -13 -1 1.54 17.25
-3 -13 1 28.31 16.12
3 -13 -1 7.53 18.54
-3 -13 0 133.54 17.91
3 -13 0 103.42 18.66
3 -13 0 75.44 19.6
-3 -13 -1 14.25 15.64
3 -13 1 28.62 17.14
-3 -13 -1 24.77 15.59
-3 -13 -2 75.09 17.78
-3 -13 -2 92.98 17.42
3 -13 2 89.79 18.97
-3 -13 -3 285.8 22.7
3 -13 3 333.72 24.18
-3 -13 -3 289.03 22.54
-13 3 -4 -5.05 11.94
-3 -13 -4 28.29 16.03
-3 13 4 4.41 13.11
3 -13 4 2.36 17.43
-3 -13 -4 3.7 16.02
-13 3 -5 200.25 16.88
-3 13 5 166.22 16.76
3 -13 5 174.29 21.3
-3 -13 -5 191 20.61
-13 3 -6 44.91 14.1
-3 13 6 88.34 14.73
3 -13 6 53.63 19.09
-3 -13 -6 62.94 18.46
-13 3 -7 21.67 13.64
-3 13 7 20.77 14.07
3 -13 7 55.19 18.87
-3 -13 -7 23.13 17.61
-3 -13 -8 11.45 18.05
-13 3 -8 15.24 14.21
3 -13 8 45.05 19.37
-3 13 8 39.09 14.2
-3 -13 -9 3.36 18.24
-13 3 -9 18.94 14.32
-3 13 9 8.07 14.34
-3 -13 -10 11.29 18.66
-13 3 -10 11.45 14.94
-13 3 -10 26.7 16.69
-3 13 10 -5.63 14.99
-3 -13 -11 82.43 20.14
-13 3 -11 99.97 17.49
-13 3 -11 84.49 18.4
-3 13 11 123.99 17.44
-3 -13 -12 13.77 19.34
-13 3 -12 19.52 15.99
-13 3 -12 38.14 18.08
-3 13 12 46.44 16.59
-13 3 -13 201.91 21.13
-13 3 -13 172.72 22.02
-3 13 13 189.18 20.54
-3 -13 -13 204.46 23.76
-13 3 -14 30.26 17.13
-13 3 -14 25.9 19.42
-3 13 14 34.49 17.83
-3 -13 -14 47.42 20.59
-3 -13 -15 10.95 20.48
-13 3 -15 5.68 17.26
-13 3 -15 7.7 18.87
-13 3 -16 36.42 20.83
-13 3 -16 33.28 18.22
-3 -13 -16 14.31 20.38
-13 3 -17 -17.04 20.69
-13 3 -17 14.03 17.83
-3 -13 -17 16.77 21.28
-13 3 -18 34.17 22.53
-13 3 -18 92.12 19.97
-3 -13 -18 78.11 23.46
-13 3 -19 2.29 22.26
-13 3 -19 4.26 19.51
-3 -13 -19 10.94 22.81
-13 3 -20 -21.35 22.97
-13 3 -20 39.44 19.94
-3 -13 -20 -13.33 22.94
-13 3 -21 51.53 24.8
-13 3 -21 47.24 21.22
-3 -13 -21 70.17 25.07
-13 3 -22 3.79 24.25
-13 3 -22 20.8 20.56
-3 -13 -22 10.35 23.83
-3 -13 -23 43.16 25.23
-13 3 -23 23.36 24.76
-4 13 -23 31.13 28.37
-4 13 -22 -2.67 27.64
-13 -4 -22 14.41 21.46
-4 13 -21 7.84 27.91
4 13 21 -1.07 18.82
-13 -4 -21 -3.52 20.33
4 13 20 -9.25 19
-13 -4 -20 17.17 20.75
-4 13 -20 -15.31 26.29
4 13 19 68.5 19.76
-13 -4 -19 109.9 21.37
-4 13 -19 99.2 27.39
-4 13 -18 24.8 19.84
4 13 18 29.88 18.64
-13 -4 -18 26.85 19.26
-4 13 -18 -3.63 24.61
-4 13 -17 11.66 18.92
4 13 17 15.01 17.48
-13 -4 -17 -3.11 18.34
-4 13 -17 21.08 23.77
-4 13 -16 6.84 22.83
-4 13 -16 9.6 18.34
4 13 16 40.02 17.52
4 -13 -16 -23.09 19.03
-13 -4 -16 -1 18.2
-4 13 -15 26.53 22.86
4 -13 -15 -8.16 19.16
4 13 15 52.05 17.72
-13 -4 -15 30.77 17.92
-4 13 -15 10.23 17.07
4 -13 -14 17.97 19.68
4 13 14 66.03 17.54
-13 -4 -14 37.89 18.07
-4 13 -14 21.84 17.18
4 -13 -13 145.47 21.92
-4 13 -13 164.15 20.83
4 13 13 162.04 20.19
-13 -4 -13 126.11 20.38
-4 13 -12 56 17.46
4 13 12 58.08 18.2
-13 -4 -12 61.18 17.3
4 -13 -12 26.19 19.31
-4 13 -11 112.47 18.43
4 13 11 123.83 18.89
4 -13 -11 81.77 20.75
-13 -4 -11 130.59 18.5
-13 -4 -10 60.2 16.26
4 -13 -10 64.54 19.59
-4 13 -10 66.34 17.05
4 -13 -9 30.25 18.76
-13 -4 -9 15.38 14.72
4 -13 -8 44.64 18.37
-13 -4 -8 44.33 14.74
-13 -4 -7 29.96 14.03
4 -13 -7 41.73 20.6
4 -13 -7 19.54 18.2
4 -13 -6 119.08 22.36
4 -13 -6 101.79 19.95
-4 -13 5 316.26 22.21
4 -13 -5 276.48 26.26
4 -13 -5 348.52 25.13
4 -13 -4 23.32 19.37
-4 -13 4 9.13 15.53
4 -13 -4 49.65 18.7
4 -13 -3 259.53 24.4
4 -13 -3 295.22 22.81
-4 -13 3 197.39 20.37
4 -13 -2 87 20.66
4 -13 -2 87.21 18.88
-4 -13 2 86.53 17.57
4 -13 -1 31.07 18.87
-4 -13 1 29.22 16.11
4 -13 -1 18.81 16.69
4 -13 0 14.22 17.4
4 -13 0 -16.23 18.36
-4 -13 0 9.71 16.01
4 -13 1 50.6 18.28
-4 -13 -1 24.69 16.17
-4 -13 -2 112.59 19.22
4 -13 2 71.35 19.67
-13 4 -3 224.28 17.83
-4 -13 -3 214.88 21.5
4 -13 3 211.21 22.59
-13 4 -4 6.43 12.37
-4 -13 -4 18.59 17.07
4 -13 4 22.74 17.85
-4 -13 -5 324.4 24.05
-4 13 5 284.07 18.89
-13 4 -5 276.78 19.98
4 -13 5 294.76 24.49
-13 4 -6 108.11 15.38
-4 13 6 71.54 14.78
4 -13 6 84.43 19.77
-4 -13 -6 87.5 18.55
-4 -13 -7 33.72 18.06
-13 4 -7 32.81 14.16
4 -13 7 57.91 18.97
-4 13 7 13.96 13.99
-4 -13 -8 5.79 17.52
-13 4 -8 14.69 13.92
-13 4 -8 36.57 16.11
4 -13 8 24.97 19.02
-4 13 8 14.08 14.26
-4 -13 -9 14.56 17.96
-13 4 -9 13.16 14.64
-13 4 -9 3.78 15.74
-4 13 9 -6.05 14.59
-4 -13 -10 57.34 19.68
-13 4 -10 41.38 15.61
-13 4 -10 68.81 17.38
-4 13 10 35.35 15.38
-4 -13 -11 84 20.58
-13 4 -11 116.44 17.35
-13 4 -11 111.41 19.61
-4 13 11 62.76 17.05
-4 -13 -12 84.72 20.53
-13 4 -12 52.01 16.68
-13 4 -12 37.49 18.32
-4 13 12 57.46 17.07
-4 -13 -13 162.37 23.12
-13 4 -13 166.1 19.68
-13 4 -13 127.13 21.08
-4 13 13 144.26 19.25
-4 -13 -14 12.84 20.18
-13 4 -14 16.64 16.97
-13 4 -14 64.24 20.25
-4 -13 -15 16.22 20.44
-13 4 -15 8.65 16.91
-13 4 -15 36.82 19.78
-4 -13 -16 27.96 21.01
-13 4 -16 16.86 17.67
-13 4 -16 36.31 20.44
-4 -13 -17 -20.1 21.71
-13 4 -17 8.16 17.7
-13 4 -17 -38.73 21.25
-13 4 -18 20.38 22.54
-13 4 -18 24.16 18.89
-4 -13 -18 -5.4 21.69
-13 4 -19 70.34 23.88
-13 4 -19 84.66 21.16
-4 -13 -19 112.57 24.09
-13 4 -20 -15.76 23.71
-13 4 -20 29.77 20.21
-4 -13 -20 -7.86 22.63
-13 4 -21 6.25 24.12
-13 4 -21 5.63 20.43
-4 -13 -21 11.44 23.69
-13 4 -22 -14.19 24.94
-13 4 -22 -19.64 20.83
-4 -13 -22 40.71 24.84
-13 4 -23 -2.64 25.32
-5 13 -22 34.24 28.25
-13 -5 -22 23.16 21.35
5 13 21 -24.26 19.46
-13 -5 -21 -16.68 20.95
-5 13 -21 21.66 28.35
5 13 20 11.21 18.36
-5 13 -20 38.03 27.31
-13 -5 -20 33.68 20.9
-5 13 -19 -3.13 20.38
-5 13 -19 10.28 26.18
5 13 19 11.89 18.03
-13 -5 -19 19.22 20.32
-5 13 -18 47.53 26.53
5 13 18 -3.86 17.36
-13 -5 -18 38.36 20.58
-5 13 -18 20.6 20.37
-5 13 -17 -13.35 24.16
5 13 17 19.74 17.72
-13 -5 -17 30.82 19.53
-5 13 -17 27.04 19.2
-5 13 -16 9.45 23.23
5 13 16 21.06 17.43
-13 -5 -16 17.47 18.84
-5 13 -16 10.93 18.79
-5 13 -15 11.51 22.85
5 13 15 -2.67 16.91
-13 -5 -15 12.88 17.99
-5 13 -15 27.01 18.16
5 13 14 69.22 18.12
5 -13 -14 42.48 19.33
-13 -5 -14 30.5 17.94
-5 13 -14 81.9 18.66
5 13 13 84.83 19.07
5 -13 -13 102.36 20.98
-13 -5 -13 93.35 19.05
-5 13 -13 106.3 19.34
5 13 12 30.19 17.08
-13 -5 -12 35.94 17.55
5 -13 -12 22.81 19
-5 13 -12 18.94 16.92
-13 -5 -11 45.2 16.86
5 -13 -11 27.8 19.21
-5 13 -11 57.54 18.07
-13 -5 -10 36.66 16.02
5 -13 -10 56.48 19.87
-5 13 -10 38.27 16.87
-13 -5 -9 29.49 15.65
5 -13 -9 45.44 19.56
-5 13 -9 25.4 15.9
5 -13 -8 15.9 20.82
5 -13 -8 6.67 18.23
-13 -5 -8 48.64 15.13
5 -13 -7 156.73 21.04
5 -13 -7 148.21 23.21
5 -13 -6 47.51 18.43
5 -13 -6 29.69 21.17
5 -13 -5 189.41 21.75
5 -13 -5 219.2 25.24
5 -13 -4 72.7 19.66
5 -13 -4 90.06 21.6
5 -13 -3 72.99 19.2
-5 -13 3 50.88 16.48
5 -13 -3 60.9 20.63
5 -13 -2 24.8 17.74
-5 -13 2 8.57 15.43
5 -13 -2 -11.8 19.58
5 -13 -1 37.07 18.47
-5 -13 1 25.46 15.88
5 -13 -1 39.83 20.41
5 -13 0 12.91 17.77
-5 -13 0 26.07 16.01
5 -13 1 35.59 17.91
-5 -13 -1 47.43 16.62
-5 -13 -2 23.38 16.37
5 -13 2 27.73 17.98
-5 -13 -3 44.87 16.92
5 -13 3 57.82 19.03
-13 5 -3 46.83 12.5
-5 -13 -4 66.88 18.01
-13 5 -4 63.22 13.7
5 -13 4 77.36 19.58
-5 13 4 1.54 8.74
-13 5 -5 220.13 17.7
-5 13 5 235.39 15.89
5 -13 5 217.87 23.27
-5 -13 -5 196.08 21.16
-13 5 -6 29.77 13.54
-5 13 6 63.13 13.22
5 -13 6 23.37 19.35
-5 -13 -6 18.85 17.6
-5 -13 -7 142.72 20.97
-13 5 -7 164.52 16.96
5 -13 7 170.51 21.7
-5 13 7 144.2 16.71
-5 -13 -8 31.98 18.4
-13 5 -8 -5.79 14.17
-5 13 8 7.04 14.51
-5 -13 -9 44.09 18.75
-13 5 -9 23.21 14.78
-13 5 -9 47.69 16.8
-5 13 9 29.8 15.18
-5 -13 -10 38.33 19.76
-13 5 -10 14.79 15.22
-13 5 -10 25.79 17.47
-5 13 10 48.17 16.09
-5 -13 -11 31.29 19.96
-13 5 -11 42.12 15.86
-13 5 -11 42.55 18.58
-5 13 11 59.34 17.25
-13 5 -12 -11.8 15.64
-5 -13 -12 41.76 20.45
-13 5 -12 7.3 19
-13 5 -13 117.94 18.31
-5 -13 -13 93.73 21.52
-13 5 -13 69.48 21.11
-13 5 -14 78.77 18.42
-5 -13 -14 80.62 21.7
-13 5 -14 40.52 19.98
-13 5 -15 9.56 17.34
-13 5 -15 -6.22 20.1
-5 -13 -15 37.79 21.05
-13 5 -16 18.03 17.8
-13 5 -16 6.41 20.66
-5 -13 -16 28.24 20.63
-13 5 -17 62.28 19.72
-13 5 -17 4.45 21.39
-5 -13 -17 37.5 22.09
-13 5 -18 -1.07 19.39
-5 -13 -18 29.58 22.75
-13 5 -18 -12.62 21.97
-5 -13 -19 -11.21 22.51
-13 5 -19 68.87 20.83
-13 5 -19 10.79 23.38
-5 -13 -20 21.75 22.67
-13 5 -20 31.25 20.48
-13 5 -20 -23.63 23.7
-5 -13 -21 39.66 24.21
-13 5 -21 26.12 20.37
-13 5 -21 39.61 24.42
-5 -13 -22 34.39 24.76
-13 5 -22 -21.03 25.27
-13 5 -22 1.16 20.84
-6 13 -22 30.91 29.45
6 13 22 -6.48 18.69
6 13 21 -30.33 19.08
-6 13 -21 22.31 28.62
-13 -6 -21 1.21 20.92
-6 13 -20 5.51 21.09
6 13 20 -1.02 18.04
-6 13 -20 -9.44 26.99
-13 -6 -20 15.4 20.58
-6 13 -19 20.51 20.92
-6 13 -19 25.26 27.32
6 13 19 23.78 18.32
-13 -6 -19 13.85 20.35
-6 13 -18 94.03 27.8
6 13 18 57.11 18.5
-13 -6 -18 33.6 21.11
-6 13 -18 112.53 21.97
-6 13 -17 106.74 27.13
6 13 17 96.3 19.18
-13 -6 -17 117.08 22.4
-6 13 -17 133.19 21.61
-6 13 -16 42.78 24.61
6 13 16 21.18 17.81
-13 -6 -16 27.27 19.44
-6 13 -16 15.32 19.13
-6 13 -15 29.93 24.01
-6 13 -15 7.02 18.58
-13 -6 -15 2.02 18.57
6 13 15 64.97 18.19
-6 13 -14 56.26 19.39
6 13 14 106.33 18.94
-13 -6 -14 87.7 20.01
-6 13 -13 31.24 17.92
6 13 13 34.86 17.46
6 -13 -13 26.02 18.68
-13 -6 -13 35.57 18.1
-6 13 -12 13.04 17.37
6 -13 -12 30.02 19.41
-13 -6 -12 47.52 17.86
-6 13 -11 6.35 16.33
6 -13 -11 50.5 20.05
-13 -6 -11 14.56 16.58
-6 13 -10 79.73 18
-13 -6 -10 83.31 17.69
6 -13 -10 82.72 20.91
6 -13 -9 89.22 23.65
-6 13 -9 118.25 18.7
-13 -6 -9 118.85 18.1
6 -13 -9 121.88 21.25
6 -13 -8 34.61 21.41
-6 13 -8 56.97 16.94
6 -13 -8 36.29 19.79
6 -13 -7 71.88 22.19
6 -13 -7 74.16 19.91
6 -13 -6 64.31 22.07
6 -13 -6 65.65 19.67
6 -13 -5 6.76 20.62
6 -13 -5 -7.42 18.26
6 -13 -4 61.55 21.6
6 -13 -4 52.4 19.07
6 -13 -3 49.3 20.7
6 -13 -3 33.66 18.9
6 -13 -2 354.84 28.21
6 -13 -2 370.02 26.65
6 -13 -1 162.97 21.46
-6 -13 1 175.11 18.99
6 -13 -1 165.64 23.19
-6 -13 0 102.14 17.78
6 -13 0 59.43 19.17
-6 -13 -1 177.27 19.63
6 -13 1 182.98 21.93
6 -13 2 352.78 26.06
-6 -13 -2 337.26 23.71
6 -13 3 40.18 19.24
-6 -13 -3 0.73 16.49
-13 6 -3 32.42 12.6
6 -13 4 56.33 19.5
-6 -13 -4 69.74 17.55
-13 6 -4 63.51 14.01
6 -13 5 -1.76 18.09
-6 -13 -5 10.01 17.59
-13 6 -5 31.12 13.36
-6 -13 -6 43.56 18.35
-13 6 -6 69.53 14.58
6 -13 6 65.75 20.18
-6 -13 -7 64.23 18.9
-13 6 -7 68.04 15.02
-6 -13 -8 47.73 18.81
-13 6 -8 48.23 15.07
-6 -13 -9 105.14 20.24
-13 6 -9 86.76 16.62
-13 6 -10 57.91 16.25
-6 -13 -10 70.68 20.32
-13 6 -10 75.2 18.84
-13 6 -11 -6.62 15.39
-6 -13 -11 3.75 19.67
-13 6 -11 33.74 18.47
-13 6 -12 41.98 16.41
-6 -13 -12 37.44 19.9
-13 6 -12 17.06 19.5
-13 6 -13 27.53 16.69
-6 -13 -13 58.94 21.22
-13 6 -13 10.89 19.24
-13 6 -14 96.98 18.55
-6 -13 -14 106.06 22.19
-13 6 -14 100.99 22.03
-13 6 -15 37.46 17.97
-6 -13 -15 47.66 21.3
-13 6 -15 52.19 20.98
-13 6 -16 44.76 18.33
-13 6 -16 26.77 21.72
-6 -13 -16 8.51 21.25
-6 -13 -17 87.4 23.6
-13 6 -17 144.97 21.87
-13 6 -17 112.16 24.19
-6 -13 -18 69.3 23.55
-13 6 -18 45.41 20.22
-13 6 -18 48.66 23.37
-6 -13 -19 43.45 23.66
-13 6 -19 41.07 20.42
-13 6 -19 45.08 24.58
-6 -13 -20 10.51 23.16
-13 6 -20 31.78 20.58
-13 6 -20 -19.05 24.97
-13 6 -21 1.31 25.37
-13 6 -21 3.47 21.09
-6 -13 -21 15.45 24.18
-13 6 -22 34.9 25.72
-7 13 -22 46 23.12
-7 13 -21 5.73 29.18
-7 13 -21 -3.41 21.58
-7 13 -20 5.54 27.32
-7 13 -20 -18.14 21.48
7 13 20 -8.1 18.02
-7 13 -19 -27.35 27.45
-7 13 -19 25.59 21.18
7 13 19 0.99 17.69
-7 13 -18 -4.35 20.55
-7 13 -18 35.83 26.03
7 13 18 -17.46 18.52
-13 -7 -18 27.22 20.77
-7 13 -17 85.43 27.32
7 13 17 55.92 18.89
-13 -7 -17 121.1 22.46
-7 13 -17 64.01 21
-7 13 -16 75.74 26.27
7 13 16 95.29 18.93
-13 -7 -16 11.74 19.27
-7 13 -16 80.48 20.56
-7 13 -15 50.76 25.08
-7 13 -15 58.81 19.98
7 13 15 74.3 18.68
-13 -7 -15 81.48 20.18
-7 13 -14 28.97 18.71
7 13 14 62.76 18.52
-13 -7 -14 67.56 19.24
-7 13 -13 59.44 18.78
7 13 13 37.39 18.37
-13 -7 -13 12.42 17.93
-7 13 -12 63.99 18.66
-13 -7 -12 45.76 18.17
7 -13 -11 77.35 20.11
-7 13 -11 12.11 16.89
7 -13 -10 37.8 22.7
7 -13 -10 27.85 19.33
-7 13 -10 3.64 16.6
7 -13 -9 115.57 24.75
7 -13 -9 164.06 22.13
-7 13 -9 112.17 18.98
7 -13 -8 103.01 23.78
7 -13 -8 114.8 21.14
-7 13 -8 89.41 18.17
7 -13 -7 79.33 23.06
7 -13 -7 133.19 21.39
-7 13 -7 82.8 17.43
7 -13 -6 49.67 19.69
7 -13 -6 78.4 22.23
7 -13 -5 109.66 20.44
7 -13 -5 141.16 24.1
7 -13 -4 46.42 21.6
7 -13 -4 65.47 19.12
7 -13 -3 -11.69 20.92
7 -13 -3 17.67 18.56
7 -13 -2 161.45 23.19
7 -13 -2 177.95 21.55
7 -13 -1 50.6 20.02
7 -13 0 46.72 19.24
7 -13 1 84.15 19.72
-7 -13 -1 55.39 16.61
7 -13 2 190.77 22.36
-13 7 -2 178.52 16.51
-7 -13 -2 171.88 19.3
7 -13 3 2.65 19.28
-13 7 -3 1.86 12.17
-7 -13 -3 -15.17 16.21
7 -13 4 9.82 19.23
-7 -13 -4 51.6 17.42
-13 7 -4 81.7 14.43
7 -13 5 67.79 20.81
-13 7 -5 83.04 15.03
-7 -13 -5 118.16 19.31
-13 7 -6 87.64 15.58
-7 -13 -6 35.31 17.77
-13 7 -7 116.33 16.24
-7 -13 -7 136.56 20.67
-7 -13 -8 110.75 20.42
-13 7 -8 134.05 17.68
-7 -13 -9 102.38 20.65
-13 7 -9 84.62 16.51
-7 -13 -10 16.6 19.57
-13 7 -10 -15.7 15.63
-13 7 -11 11.49 19.19
-7 -13 -11 -20.72 19.74
-13 7 -11 6.86 15.7
-13 7 -12 47.77 20.57
-7 -13 -12 39.8 20.02
-13 7 -12 38.74 16.73
-13 7 -13 12.35 19.78
-13 7 -13 12.71 16.48
-13 7 -14 56.89 21.63
-7 -13 -14 51.37 21.86
-13 7 -14 59.13 17.97
-13 7 -15 52.25 21.91
-7 -13 -15 31.64 21.27
-13 7 -15 23.27 17.62
-13 7 -16 50.4 22.86
-7 -13 -16 52.05 23.02
-13 7 -16 76.48 19.39
-13 7 -17 71.67 23.72
-13 7 -17 75.93 19.94
-7 -13 -17 54.58 22.88
-7 -13 -18 27.31 23.9
-13 7 -18 2.16 18.84
-13 7 -18 30.54 23.97
-7 -13 -19 22.12 23.87
-13 7 -19 17.99 19.95
-13 7 -19 17.66 23.21
-7 -13 -20 -4.75 23.77
-13 7 -20 19.63 20.76
-13 7 -20 1.29 24.78
-7 -13 -21 10.89 24.11
-13 7 -21 21.18 20.84
-13 7 -21 41.54 26.39
-8 13 -21 -3.5 21.62
-8 13 -20 12.78 21.76
-8 13 -20 48.3 28.53
8 13 19 18.84 17.82
-8 13 -19 16.02 21.41
-8 13 -19 -8.44 27.65
8 13 18 0.97 17.42
-8 13 -18 25.65 20.95
-8 13 -18 -15 26.29
8 13 17 -14.3 17.63
-8 13 -17 26.41 20.89
-8 13 -17 47.97 26.84
8 13 16 14.28 17.69
-8 13 -16 3.2 19.24
-8 13 -16 -1.3 25.47
8 13 15 42.39 17.83
-8 13 -15 54.76 19.71
-8 13 -15 63.85 25.95
-8 13 -14 51.65 19.36
8 13 14 63.85 18.51
-8 13 -13 36.93 18.32
8 -13 -12 35.55 23.87
-8 13 -12 16.55 17.59
8 -13 -11 36.98 24.06
-8 13 -11 22.03 17.55
8 -13 -10 53.98 23.25
-8 13 -10 64.13 17.62
8 -13 -9 52.98 23.7
8 -13 -9 16.6 20.02
-8 13 -9 41.9 17.53
8 -13 -8 100.64 23.93
8 -13 -8 83.22 20.82
-8 13 -8 114.4 18.87
8 -13 -7 17.74 22.15
8 -13 -7 65.33 20.62
-8 13 -7 44.18 16.5
8 -13 -6 230.58 24.27
8 -13 -6 194.94 26.8
8 -13 -5 106.95 21.39
8 -13 -5 83.18 23.5
8 -13 -4 134.16 21.54
8 -13 -4 104.12 23.5
8 -13 -3 61.83 19.71
8 -13 -3 76.46 22
8 -13 -2 54.27 19.38
8 -13 -2 43.28 21.99
8 -13 -1 87.77 20.5
8 -13 0 234.29 23.7
8 -13 1 119.21 21.59
8 -13 2 62.84 20.31
-13 8 -2 57.16 13.66
8 -13 3 83.63 20.86
-13 8 -3 96.2 14.76
-8 -13 -3 66.44 17.05
-13 8 -4 106.76 15.18
8 -13 4 93.73 21.05
-8 -13 -4 122.57 19.07
-8 -13 -5 108.24 19.05
-13 8 -5 134.24 16.53
-8 -13 -6 232.03 22.74
-13 8 -6 186.46 18.22
-8 -13 -7 25.15 18.22
-13 8 -7 28.91 14.31
-8 -13 -8 60.07 19.64
-13 8 -8 87.8 16.47
-8 -13 -9 52.4 19.76
-13 8 -9 28.64 15.75
-13 8 -10 44.76 16.11
-8 -13 -10 66.98 20.36
-8 -13 -11 25.81 18.91
-13 8 -11 -8.78 15.91
-13 8 -11 20.35 19.77
-8 -13 -12 -4.92 19.68
-13 8 -12 -7.3 16.45
-13 8 -12 -1.04 19.63
-8 -13 -13 -2.03 20.31
-13 8 -13 -6.56 16.47
-13 8 -13 28.09 21
-8 -13 -14 83.6 22.13
-13 8 -14 63.41 18.35
-13 8 -14 73.46 22.51
-8 -13 -15 23.67 21.32
-13 8 -15 46.47 18.11
-13 8 -15 25.46 22.12
-8 -13 -16 -16.56 22.16
-13 8 -16 21.37 18.51
-13 8 -16 15.46 22.72
-8 -13 -17 26.01 22.61
-13 8 -17 32.68 19
-13 8 -17 31.89 24.06
-8 -13 -18 5.79 22.73
-13 8 -18 -5.1 23.77
-13 8 -18 13.05 19.46
-8 -13 -19 11.8 23.58
-13 8 -19 12.98 24.5
-13 8 -19 8.99 19.74
-8 -13 -20 -8.43 23.71
-13 8 -20 25.38 25.31
-13 8 -20 -9.33 20.71
-13 8 -21 -27.2 25.69
-9 13 -20 -15.97 28.59
-9 13 -20 58.04 22.92
-9 13 -19 14.4 27.89
-9 13 -19 -1.17 21.47
-9 13 -18 65.67 28.77
-9 13 -18 1.14 20.94
9 13 17 24.92 18.04
-9 13 -17 -1.12 20.38
-9 13 -17 -4.1 26.21
9 13 16 36.63 18.72
-9 13 -16 30.74 25.48
-9 13 -16 18.63 20.11
9 13 15 87.26 19.57
-9 13 -15 73.3 26.47
-9 13 -15 104.07 21.23
9 13 14 26.74 18.22
-9 13 -14 8.46 19.07
9 -13 -13 33.15 24.77
-9 13 -13 23.55 18.64
9 -13 -12 42.96 24.31
-9 13 -12 9.97 17.53
9 -13 -11 37.66 23.88
-9 13 -11 39.79 17.41
9 -13 -10 115.59 25.73
-9 13 -10 109.71 19.38
9 -13 -9 -12.21 23.21
-9 13 -9 37.08 16.95
9 -13 -8 -6.5 23.15
9 -13 -8 -2.65 20.35
-9 13 -8 -1.82 15.83
9 -13 -7 15.04 23.32
9 -13 -7 23.87 20.75
-9 13 -7 25.82 16.37
9 -13 -6 81.99 24.19
9 -13 -6 60.03 21.14
-9 13 -6 30.2 16.4
9 -13 -5 32.47 22.47
9 -13 -5 46.56 20.84
9 -13 -4 63.95 22.6
9 -13 -4 59.82 20.84
9 -13 -3 44.62 22.21
9 -13 -3 65.34 20.69
9 -13 -2 67.64 21.08
9 -13 -1 26.96 19.86
9 -13 0 28.22 20.04
9 -13 1 38.43 20.31
9 -13 2 89.98 21.88
-13 9 -2 82.13 14.5
-13 9 -3 60.69 14.89
9 -13 3 47.73 20.91
-13 9 -4 63.66 14.82
-9 -13 -5 14.95 17.12
-13 9 -5 35.26 14.17
-9 -13 -6 23.77 18.36
-13 9 -6 39.63 14.67
-9 -13 -7 18.64 17.59
-13 9 -7 11.94 14.89
-9 -13 -8 -17.66 19.37
-13 9 -8 3.27 15.14
-9 -13 -9 48.2 19.29
-13 9 -9 35.33 15.67
-9 -13 -10 90.96 21.3
-13 9 -10 105.34 18.24
-9 -13 -11 40.63 20.25
-13 9 -11 30.66 16.49
-13 9 -12 9.91 21.06
-9 -13 -12 28.98 19.96
-13 9 -12 28.97 16.59
-9 -13 -13 13.42 20.6
-13 9 -13 -25.17 17.3
-13 9 -14 11.66 22.19
-9 -13 -14 31.87 21.22
-13 9 -14 3.98 17.57
-13 9 -15 53.89 23.77
-9 -13 -15 70.93 23.07
-13 9 -15 69.1 19.98
-13 9 -16 63.48 24.52
-9 -13 -16 25.73 22.48
-13 9 -16 17.69 18.32
-13 9 -17 -26.67 24.01
-9 -13 -17 -29.85 22.74
-13 9 -17 -5.34 19.21
-13 9 -18 24.89 24.72
-9 -13 -18 78.56 24.53
-13 9 -18 70.6 21.1
-13 9 -19 -35.03 26.42
-9 -13 -19 32.35 23.42
-13 9 -19 -2.27 19.92
-13 9 -20 -21.95 26.02
-13 9 -20 5.84 20.59
-9 -13 -20 21.99 24.09
-10 13 -19 30.78 28.39
-10 13 -19 -26.17 22.03
-10 13 -18 98.51 29.02
-10 13 -18 53.88 22.16
-10 13 -17 9.78 26.63
-10 13 -17 33.09 21.18
-10 13 -16 13.69 26.55
-10 13 -16 -14.57 20.11
10 -13 -15 12.42 26.77
10 13 15 18.45 18.16
-10 13 -15 -1.34 25.62
-10 13 -15 -3.27 19.3
10 13 14 32.82 18.63
-10 13 -14 57.89 20.33
10 -13 -14 76.69 26.98
-10 13 -13 64.24 19.96
10 -13 -13 49.17 25.98
-10 13 -12 22.4 18.42
10 -13 -12 30.59 24.87
-10 13 -11 58.54 18.34
10 -13 -11 77.82 25.22
-10 13 -10 53.29 18.17
10 -13 -10 34.36 24.37
-10 13 -9 66.42 18.3
10 -13 -9 32.45 24
-10 13 -8 74.79 17.96
10 -13 -8 25.54 23.54
-10 13 -7 41.66 17.29
10 -13 -7 35.2 23.29
-10 13 -6 50.44 17.04
10 -13 -6 110.64 21.9
10 -13 -6 64.91 24.13
-10 13 -5 36.89 16.28
10 -13 -5 66.64 21.46
10 -13 -5 56.47 23.4
-10 13 -4 49.73 16.24
10 -13 -4 96 22.28
10 -13 -4 79.32 23.33
10 -13 -3 12.77 20.32
10 -13 -2 59.84 21.22
10 -13 -1 54.81 21.41
10 -13 0 61.69 20.99
-13 10 -1 38.18 13.7
10 -13 1 24.62 20.82
10 -13 2 99.09 22.24
-13 10 -2 73.55 14.72
-13 10 -3 46.99 14.69
-13 10 -4 82.58 16.15
-13 10 -5 59.13 15.57
-13 10 -6 31.81 15.43
13 -10 -6 93.73 20.85
-13 10 -7 50.2 15.88
13 -10 -7 85.27 20.47
-10 -13 -8 61.68 19.33
-13 10 -8 29.14 16.06
-10 -13 -9 15.62 18.77
-13 10 -9 19.4 16.02
-10 -13 -10 32.26 19.95
-13 10 -10 75.7 17.2
-10 -13 -11 49.11 20.61
-13 10 -11 59.06 17.53
-10 -13 -12 32.48 20.63
-13 10 -12 0.96 17.08
-10 -13 -13 21.98 20.95
-13 10 -13 20.85 17.51
-13 10 -13 33.14 23.1
-10 -13 -14 52.83 22.25
-13 10 -14 67.7 19.88
-13 10 -14 32.88 23.79
-10 -13 -15 -13.29 22.1
-13 10 -15 55.7 19.63
-13 10 -15 36.25 24.3
-10 -13 -16 9.08 22.38
-13 10 -16 12.84 18.89
-13 10 -16 56.65 24.93
-10 -13 -17 4.66 22.62
-13 10 -17 20.76 19.35
-13 10 -17 46.47 25.82
-13 10 -18 68.29 21.08
-10 -13 -18 103.41 25.32
-13 10 -18 62.06 26.57
-13 10 -19 -28.78 20.46
-10 -13 -19 31.56 24.28
-13 10 -19 -22.28 26.38
-11 13 -18 -9.53 21.69
-11 13 -18 2.91 27.37
-11 13 -17 46.56 21.18
11 -13 -17 29.77 27.71
-11 13 -17 21.37 27.57
-11 13 -16 50.01 21.34
11 -13 -16 19.06 26.97
-11 13 -16 47.52 27.23
11 -13 -15 -6.27 26.81
-11 13 -15 23.45 20.25
-11 13 -15 28.72 25.97
11 -13 -14 8.62 27.26
-11 13 -14 39.05 19.83
-11 13 -14 -9.46 25.73
11 -13 -13 46.16 27.5
-11 13 -13 30.99 19.02
-13 -11 -13 -13.4 20.48
11 -13 -12 63.71 27.55
-11 13 -12 37.67 19.27
-13 -11 -12 7.94 20.31
-11 13 -11 32.35 18.58
11 -13 -11 96.48 26.66
-11 13 -10 86.71 18.51
11 -13 -10 29.99 24.83
-11 13 -9 10.58 16.86
11 -13 -9 40.19 24.98
-11 13 -8 27.32 17.17
11 -13 -8 19.28 23.75
-11 13 -7 33.91 16.91
11 -13 -7 56.86 23.84
-11 13 -6 79.06 17.84
11 -13 -6 94.41 24.83
-11 13 -5 66.73 16.67
11 -13 -5 24.71 22.44
-11 13 -4 29.79 15.92
11 -13 -4 29.98 21.53
11 -13 -4 9.62 22.85
-11 13 -3 17.53 15.01
11 -13 -3 40.62 21.75
11 -13 -2 69.24 21.64
11 -13 -1 -28.7 20.78
11 -13 0 -6.75 20.9
11 -13 1 25.23 21.47
-13 11 -1 -3.63 13.49
-13 11 -2 52.94 14.87
-13 11 -3 23.67 14.86
-13 11 -4 6.31 14.45
-13 11 -5 59.48 16.07
-13 11 -6 63.19 16.54
13 -11 -6 130.16 23.42
-13 11 -7 30.02 15.71
13 -11 -7 51.87 21.6
-13 11 -8 22.16 15.87
13 -11 -8 39.47 21.05
-11 -13 -9 38.03 19.45
-13 11 -9 51.58 17.32
-11 -13 -10 69.12 21.45
-13 11 -10 81.95 18.05
-11 -13 -11 44.8 20.89
-13 11 -11 17.34 16.92
-11 -13 -12 28.84 21.14
-13 11 -12 24.99 17.77
-11 -13 -13 24.39 21.34
-13 11 -13 26.54 19.04
-13 11 -13 36.15 24.36
-11 -13 -14 45.85 22.69
-13 11 -14 38.96 19.45
-13 11 -14 33.02 24.35
-11 -13 -15 -15.7 22.07
-13 11 -15 -19.51 19.28
-13 11 -16 6.66 25.14
-11 -13 -16 -1.15 22.39
-13 11 -16 34.34 19.92
-13 11 -17 28.81 26.6
-11 -13 -17 55.41 24.23
-13 11 -17 51.62 20.35
-13 11 -18 -20.94 26.1
-11 -13 -18 22.86 23.68
-13 11 -18 3.44 19.91
-12 13 -17 20.23 27.46
-13 -12 -17 -7.1 22.57
-12 13 -17 24.87 21.32
-12 13 -16 1.42 26.52
-13 -12 -16 11.53 22.34
-12 13 -16 21.96 20.94
-12 13 -15 33.38 26.43
-13 -12 -15 -3.37 22.28
-12 13 -15 -2.26 20.19
-13 -12 -14 43.53 22.12
12 -13 -14 -20 24.99
-12 13 -14 15.51 19.77
-12 13 -14 1.38 26.02
12 -13 -13 -24.61 25.89
-12 13 -13 33.36 19.07
-13 -12 -13 9.48 21.43
-12 13 -12 148.73 21.64
12 -13 -12 101.07 26.87
-12 13 -11 18.67 18.48
12 -13 -11 5.95 25.47
-12 13 -10 84.15 19.81
12 -13 -10 103.96 27.64
-12 13 -9 29.31 17.96
12 -13 -9 2.33 25.14
-12 13 -8 4.77 16.47
12 -13 -8 8.02 23.94
-12 13 -7 5.6 16.46
12 -13 -7 51.87 24.76
-12 13 -6 85.2 18
12 -13 -6 96.07 25.35
-12 13 -5 7.99 15.54
12 -13 -5 14.27 23.42
-12 13 -4 68.93 17.17
-12 13 -3 18.59 15.8
-12 13 -2 74.2 16.38
12 -13 -2 67.57 23.46
12 -13 -1 51.1 22.2
-13 12 -1 23.8 14.41
-13 12 -2 43.64 15.12
-13 12 -3 33.99 15.38
-13 12 -4 60.47 15.73
-13 12 -5 35.05 15.8
-13 12 -6 83.39 17.25
13 -12 -6 156.45 25.43
-13 12 -7 25.14 16.06
13 -12 -7 37.42 22.31
-13 12 -8 -2.77 16.69
13 -12 -8 59.32 22.87
-13 12 -9 29.63 17.34
13 -12 -9 32.37 21.99
-13 12 -10 73.97 19.21
13 -12 -10 186.46 25.23
-13 12 -11 19.13 18.15
-12 -13 -12 156.22 24.27
-13 12 -12 123.2 21.22
-12 -13 -13 -6.45 21.55
-13 12 -13 9.16 24.82
-13 12 -13 3.18 18.42
-13 12 -14 -5.31 25.25
-12 -13 -14 64.22 22.91
-13 12 -14 60.6 20.13
-13 12 -15 20.35 25.49
-12 -13 -15 -10.23 22.59
-13 12 -15 -8.91 19.45
-13 12 -16 18.01 26.18
-12 -13 -16 -39.61 24.08
-13 12 -16 27.42 20.17
-13 12 -17 18.4 26.6
-13 12 -17 6.96 20.27
-12 -13 -17 20.24 23.86
-13 13 -1 17.08 15.12
-13 13 -2 57.94 16.47
-13 13 -3 18.97 15.76
-13 13 -4 5.26 15.7
-13 13 -5 8.07 15.99
-13 13 -6 8.32 16.66
-13 13 -7 5.66 16.81
13 -13 -7 65.8 24.57
-13 13 -8 44.48 17.85
13 -13 -8 63.37 25.09
-13 13 -9 4.96 17.37
13 -13 -9 7.04 23.97
-13 13 -10 25.68 19.13
13 -13 -10 83.34 24.45
-13 13 -11 42.06 19.41
13 -13 -11 109.02 25.37
-13 13 -12 36.21 19.17
-13 13 -13 -8.75 19.1
-13 -13 -14 19.03 22.89
-13 13 -14 16.7 26.19
-13 13 -14 80.58 20.73
-13 -13 -15 31.03 22.98
-13 13 -15 16.91 26.43
-13 13 -15 17.14 20.13
-13 -13 -16 9.41 22.99
-13 13 -16 -56.12 27.86
0 -14 0 53.99 18.48
0 -14 0 36.6 17.86
0 -14 -1 134.56 20.62
0 -14 1 104.76 19.38
0 -14 -1 125.74 20.09
0 -14 -2 226.56 22.41
0 -14 -2 179.1 21.64
0 -14 2 227 22.3
0 -14 -3 7.38 18.78
0 -14 -3 21.14 18.09
0 -14 3 8.67 17.88
0 -14 -4 397.78 27.8
0 -14 -4 378.58 26.86
0 -14 4 389.09 26.55
0 -14 -5 152.32 21.57
0 -14 5 150.49 19.97
0 -14 -5 154.71 22.45
0 -14 -6 26.23 18.47
0 -14 -6 24.69 19.5
0 -14 6 13.52 17.5
0 -14 7 95.87 19.56
0 -14 -7 88.43 20
-14 0 -7 88.01 15.68
0 14 8 90.1 17.05
0 -14 8 58.61 18.78
0 -14 -8 94.95 20.03
-14 0 -8 93.35 15.92
0 14 9 40.64 16.09
0 -14 9 -3.3 17.92
0 -14 -9 -0.88 18.48
-14 0 -9 -9.74 15.33
0 14 10 38.73 16.47
-14 0 -10 36.98 15.89
0 -14 -10 -0.9 18.74
0 -14 10 21.57 17.93
0 14 11 -13.36 16.08
0 -14 -11 -23.84 20.34
-14 0 -11 7.41 16.06
0 14 -11 8.81 16.59
0 14 12 110 18.44
-14 0 -12 136.56 19.17
0 -14 -12 134.74 22.33
0 14 13 111.42 18.54
-14 0 -13 86.87 18.91
0 -14 -13 123.36 21.72
0 14 14 27.14 17.08
-14 0 -14 -21.47 17.87
0 -14 -14 9.72 20.37
0 14 15 9.07 17.18
-14 0 -15 12.67 17.65
0 -14 -15 5.96 20.45
0 14 16 127.88 20.24
-14 0 -16 132.73 21.64
0 -14 -16 86.88 22.38
0 14 17 -7.84 18.46
-14 0 -17 -20.04 19.26
0 14 18 1.02 18.7
-14 0 -18 -31.49 20.07
0 -14 -18 1.05 21.76
-14 0 -19 31.11 19.98
0 -14 -19 -22.44 23.36
-14 0 -20 64.92 21.54
0 -14 -20 85.85 24.99
-14 0 -21 15.13 20.91
0 -14 -21 4.41 23.32
-14 0 -22 -10.63 20.59
0 -14 -22 4.47 24.24
-14 -1 -22 37.91 21.09
-14 -1 -21 16.23 20.28
-14 -1 -20 21.52 20.4
1 -14 -20 -34.28 23.42
1 14 19 51.61 19.58
-14 -1 -19 33.17 19.87
1 -14 -19 45.4 23.34
1 14 18 -18.19 18.88
-14 -1 -18 28.08 19.9
1 -14 -18 39.39 22.52
1 14 17 -15.55 18.19
-14 -1 -17 1.05 18.88
1 -14 -17 34.61 21.45
1 14 16 0.94 17.25
-14 -1 -16 2.03 18.43
1 14 15 15.46 17.25
-14 -1 -15 17.76 17.78
1 -14 -15 17.59 20.55
1 14 14 62.41 17.97
-14 -1 -14 33.35 18.1
1 -14 -14 27.88 20.11
1 14 13 68.93 17.42
1 -14 -13 19.89 19.86
-14 -1 -13 80.84 18.7
-1 14 -13 44.31 17.54
1 14 12 22.21 16.15
1 -14 -12 25.09 19.86
-14 -1 -12 46.53 17.44
-1 14 -12 25.4 17.53
1 14 11 36.58 16.8
1 -14 -11 46.37 20.02
-14 -1 -11 30.96 16.59
-1 14 -11 60.63 17.58
1 -14 -10 24.93 19.1
-14 -1 -10 35.85 16.36
1 14 10 54.77 16.95
-1 -14 10 35.2 17.57
-1 -14 9 27.05 17.81
1 -14 -9 76.15 19.42
1 14 9 27.25 16.17
-14 -1 -9 30.26 15.45
1 -14 -8 1.75 18.78
-14 -1 -8 34.36 15.37
-1 -14 8 10.26 17.16
-1 -14 7 71.74 17.91
1 -14 -7 48.27 19.14
1 -14 -6 6.35 19.95
-1 -14 6 44.72 17.88
1 -14 -6 -2.55 18.06
1 -14 -5 174.08 22.84
-1 -14 5 200.18 21.04
1 -14 -5 191.09 22.24
1 -14 -4 61.37 20.44
-1 -14 4 72.38 18.26
1 -14 -4 81.25 19.76
1 -14 -3 107.39 20.83
-1 -14 3 92.87 18.78
1 -14 -3 92.84 19.36
1 -14 -2 176.22 22.89
-1 -14 2 203.94 21.26
1 -14 -2 182.64 21.65
1 -14 -1 60.61 19.82
1 -14 -1 102.61 19.45
-1 -14 1 58.98 18.55
1 -14 0 -33.16 18.2
-1 -14 0 10.34 17.55
-1 -14 0 -7.86 17.94
1 -14 0 -16.1 17.47
-1 -14 -1 72.98 18.58
1 -14 1 47.92 18.22
-1 -14 -1 49.78 18.36
-1 -14 -2 213.7 21.73
1 -14 2 193.3 21.71
-1 -14 -2 214.09 22.06
-1 -14 -3 112.94 19.74
1 -14 3 97.48 19.59
-1 -14 -3 69.65 18.87
-1 -14 -4 83.32 19.69
1 -14 4 57.9 18.64
-1 -14 -4 52.55 18.81
-1 -14 -5 217.05 22.81
-1 -14 -5 179.05 21.72
1 -14 5 208.95 22.17
-1 -14 -6 -6.73 17.77
1 -14 6 22.96 18.2
-1 14 6 44 15.59
-1 -14 -7 26.19 17.96
-14 1 -7 43.49 14.36
1 -14 7 20.84 18.64
-1 -14 -8 -25.1 19.08
-14 1 -8 5.08 14.31
1 -14 8 22.69 18.16
-1 14 8 27.77 15.27
-1 14 9 47.71 16.18
1 -14 9 40.77 18.52
-14 1 -9 60.57 15.98
-1 -14 -9 4.43 18.48
-14 1 -10 34.85 16.19
-1 14 10 56.94 16.05
-1 -14 -10 38.69 19.35
-14 1 -11 88.87 17.28
-1 14 11 59.97 17.25
-1 -14 -11 71.58 20.59
-14 1 -12 48.2 17.48
-1 14 12 47.75 17.03
-1 -14 -12 29.18 19.43
-14 1 -13 75.84 18.16
-1 14 13 70.58 18.01
-1 -14 -13 51.07 20.49
-14 1 -14 29.67 17.43
-1 14 14 37.53 17.59
-1 -14 -14 -5.89 20.22
-14 1 -15 -5.77 17.21
-1 14 15 6.35 17.06
-1 -14 -15 41.12 21.07
-14 1 -16 12.95 17.93
-1 14 16 5.68 17.75
-1 -14 -16 33.87 21.62
-14 1 -17 12.38 18.98
-1 14 17 11.91 18.01
-1 -14 -17 38.84 22.33
-14 1 -18 18.17 19.26
-1 -14 -18 58.92 22.79
-14 1 -19 33.32 20.12
-1 -14 -19 27.32 23.45
-14 1 -20 16.04 20.78
-1 -14 -20 52.3 24.23
-14 1 -21 45.61 21.71
-1 -14 -21 82.52 25.41
-14 1 -22 2.38 20.65
-1 -14 -22 -29.8 25.09
-14 -2 -22 10.67 20.71
-14 -2 -21 45.47 21.73
-14 -2 -20 -22.75 20.5
2 14 20 -2.16 18.94
-14 -2 -19 8.87 19.68
2 14 19 15.63 19.08
-14 -2 -18 45.3 20.07
2 14 18 7.03 18.11
-14 -2 -17 67.96 20.42
2 14 17 86.52 19.71
2 -14 -17 71.37 22.75
2 -14 -16 7.91 20.95
-2 14 -16 1.09 22.88
-14 -2 -16 34.49 18.82
2 14 16 6.6 17.37
2 -14 -15 8.78 20.98
-2 14 -15 38.01 22.38
2 14 15 2.74 16.97
-14 -2 -15 29.42 18.24
2 14 14 -3.55 16.82
2 -14 -14 22.99 20.38
-2 14 -14 35.21 18.1
-14 -2 -14 26.5 17.76
2 14 13 97.02 18.29
2 -14 -13 93.9 21.09
-2 14 -13 48.73 18.87
-14 -2 -13 66.63 18.33
2 14 12 29.75 17.43
2 -14 -12 36.8 20.25
-2 14 -12 22.9 17.56
-14 -2 -12 54.34 17.62
2 14 11 78.23 17.73
2 -14 -11 80.19 21.14
-2 14 -11 74.72 18.03
-14 -2 -11 56.26 16.99
2 14 10 11.45 16.73
-14 -2 -10 8.02 15.75
2 -14 -10 35.19 19.34
-14 -2 -9 98.67 17.29
2 -14 -9 106.74 21.01
-14 -2 -8 -2.9 14.83
2 -14 -8 21.92 19.2
-2 -14 8 18.3 17.27
2 -14 -7 36.57 19.08
2 -14 -7 57.54 21.55
-2 -14 7 76.06 17.91
2 -14 -6 50.53 19.44
2 -14 -6 56.26 21.12
-2 -14 6 55.33 17.74
2 -14 -5 102.96 20.22
2 -14 -5 165.02 23.04
-2 -14 5 163.18 20.11
2 -14 -4 57.04 19.69
2 -14 -4 95.74 21.05
-2 -14 4 107.38 18.92
-2 -14 3 26.99 17.52
2 -14 -3 54.87 19.1
2 -14 -3 62.33 20.74
-2 -14 2 43.93 17.87
2 -14 -2 26.59 18.71
2 -14 -2 19.33 19.36
2 -14 -1 32.04 17.91
-2 -14 1 -4.62 17.63
2 -14 -1 -0.86 18.7
2 -14 0 47.29 18.22
-2 -14 0 25.47 17.68
2 -14 0 25.41 19.09
-2 -14 0 60.94 17.14
-2 -14 -1 7.78 16.95
-2 -14 -1 15.2 16.94
2 -14 1 45.79 18.29
-2 -14 -2 7.13 17.51
-2 -14 -2 17.76 17.82
2 -14 2 8.21 18.35
-2 -14 -3 73.08 18.6
-2 -14 -3 56.14 18.87
2 -14 3 50.03 18.8
-2 -14 -4 102.36 19.52
-2 -14 -4 86.94 19.55
2 -14 4 67.67 19.38
-2 -14 -5 173.84 21.35
-2 14 5 162.95 17.55
-2 -14 -5 167.58 21.32
2 -14 5 141.86 21.28
-14 2 -6 79.24 15.41
-2 14 6 103.97 15.96
-2 -14 -6 63.91 19.49
2 -14 6 83.83 19.85
-14 2 -7 28.72 14.85
-2 14 7 25.55 15.2
-2 -14 -7 16.16 18.27
2 -14 7 39.39 19.27
-14 2 -8 19.91 14.85
-2 14 8 -17.24 14.71
-2 -14 -8 17.41 18.4
2 -14 8 42.57 18.85
-14 2 -9 98.95 17.64
2 -14 9 119.01 20.63
-2 14 9 106.92 17.28
-2 -14 -9 113.34 20.88
-2 14 10 36.37 15.83
-14 2 -10 32.22 16.1
-2 14 11 82.76 17.43
-2 -14 -11 48.35 20.01
-14 2 -11 97.3 17.74
-14 2 -12 40.95 17.37
-2 -14 -12 48.39 20.09
-2 14 12 20.14 16.64
-14 2 -13 55.87 17.86
-2 -14 -13 68.07 21.35
-2 14 13 62.91 17.79
-14 2 -14 -4.64 16.86
-2 -14 -14 39.96 20.83
-2 14 14 27.15 17.44
-14 2 -15 34.72 18.5
-2 -14 -15 17.41 21.01
-2 14 15 -13.76 17.23
-14 2 -16 45.73 18.89
-2 -14 -16 4.2 20.86
-2 14 16 40.36 18.43
-14 2 -17 77.02 19.81
-2 -14 -17 94.34 23.58
-14 2 -18 30.7 19.26
-2 -14 -18 32.76 23.07
-14 2 -19 10.91 19.37
-2 -14 -19 39.91 23.52
-14 2 -20 25.95 20.44
-2 -14 -20 38.39 23.82
-14 2 -21 1.16 21.03
-2 -14 -21 55.1 24.48
-14 2 -22 10.79 21.03
-2 -14 -22 29.09 24.92
-14 -3 -21 -2.35 20.62
-14 -3 -20 6.85 20.16
3 14 20 57.87 19.77
-14 -3 -19 6.67 19.91
3 14 19 10.37 18.53
-3 14 -19 39.22 27.17
-14 -3 -18 35.69 20.24
-3 14 -18 45.62 25.94
3 14 18 4.01 18.02
3 -14 -18 -16.25 20.11
3 14 17 49.69 19.01
3 -14 -17 17.97 20.58
-14 -3 -17 70.63 20.37
-3 14 -17 82.53 26.04
-3 14 -16 41.94 23.74
3 14 16 48.34 18.3
3 -14 -16 36.3 21.05
-14 -3 -16 43.86 19.27
-3 14 -16 68.48 19.88
-3 14 -15 88.33 24.33
-3 14 -15 88.96 19.84
3 -14 -15 108.02 22.86
3 14 15 83.71 18.88
-14 -3 -15 107.42 19.91
-3 14 -14 35.66 18.78
3 -14 -14 38.09 20.57
3 14 14 23.22 17.17
-14 -3 -14 38.96 18.03
-3 14 -13 22.01 17.54
3 -14 -13 67.01 20.79
3 14 13 32.73 17.28
-14 -3 -13 74.92 18.18
-3 14 -12 19.97 18.43
-14 -3 -12 -9.64 17.25
3 14 12 17.34 17.08
3 -14 -12 -10.24 19.71
-14 -3 -11 54.44 16.91
3 -14 -11 26.58 19.71
-3 14 -11 10.68 17.32
3 14 11 30.83 17.75
-14 -3 -10 115.82 17.67
-3 14 -10 85.06 18.19
3 -14 -10 59.64 20.35
-14 -3 -9 195.9 19.75
3 -14 -9 195.07 23.22
3 -14 -8 9.08 22.04
3 -14 -8 33.64 19.32
3 -14 -7 72.86 21.43
3 -14 -7 60.12 20.02
-3 -14 6 47.17 17.09
3 -14 -6 53.98 20.73
3 -14 -6 37.95 18.88
-3 -14 5 158.54 20.4
3 -14 -5 186.02 24.11
3 -14 -5 220.62 22.87
-3 -14 4 27.78 17.13
3 -14 -4 -8.37 20.06
3 -14 -4 22.08 18.73
3 -14 -3 36.99 20.96
3 -14 -3 60.12 19.38
-3 -14 3 64 17.65
3 -14 -2 136.46 22.1
3 -14 -2 128.15 20.64
-3 -14 2 151.41 19.82
3 -14 -1 134.7 21.7
3 -14 -1 121.39 20.17
-3 -14 1 96.29 18.9
3 -14 0 -13.32 18.57
3 -14 0 22.93 19.07
-3 -14 0 19.02 17.45
3 -14 1 92.97 19.58
-3 -14 -1 73.39 18.64
3 -14 2 109.51 20.12
-3 -14 -2 150.2 20.51
3 -14 3 36.12 18.88
-3 -14 -3 46.94 18.31
-3 -14 -4 14.59 17.71
-3 14 4 4.73 13.26
3 -14 4 3.39 18.25
-3 -14 -5 225.57 22.19
-3 14 5 167.2 17.36
-3 -14 -5 219.67 21.89
3 -14 5 220.23 22.97
-14 3 -6 51.33 14.38
-3 14 6 51.77 14.99
-3 -14 -6 38.42 18.76
3 -14 6 61.12 20.03
-14 3 -7 75.58 15.48
-3 14 7 84.83 15.25
-3 -14 -7 54.79 19.23
3 -14 7 55.56 20.09
-14 3 -8 25.5 14.94
-3 -14 -8 -3.48 18.22
3 -14 8 33.01 19.07
-3 14 8 20.99 15.02
-3 14 9 224.73 19.84
-3 -14 -9 174.52 23.32
-14 3 -9 223.64 19.83
-3 14 10 80.68 16.98
-3 -14 -10 58.55 19.94
-14 3 -10 78.5 17.01
-3 14 11 6.94 16.11
-3 -14 -11 32.82 19.37
-14 3 -11 11.88 16.2
-3 14 12 -19.35 15.84
-3 -14 -12 -12.54 20.21
-14 3 -12 0.88 16.13
-3 14 13 29.61 16.66
-3 -14 -13 28.76 20.83
-14 3 -13 34.77 17.64
-3 14 14 24.8 17.51
-14 3 -14 28.42 18.02
-3 -14 -14 15.26 21.04
-14 3 -15 111.23 20.2
-3 -14 -15 120.83 23.07
-14 3 -16 42.1 18.4
-3 -14 -16 26.58 22.12
-14 3 -17 32.92 18.79
-3 -14 -17 -5.43 21.68
-14 3 -18 -18 18.39
-3 -14 -18 26.57 22.62
-14 3 -19 10.91 18.97
-3 -14 -19 1.13 23.09
-14 3 -20 44.79 20.74
-3 -14 -20 20.67 23.7
-14 3 -21 22.98 20.37
-3 -14 -21 45.51 24.35
-14 3 -22 -11.39 24.46
-3 -14 -22 -33.14 24.86
4 14 21 6.58 19.1
-14 -4 -21 -11.99 20.91
-4 14 -21 24.05 28.31
4 14 20 3.19 19.2
-14 -4 -20 49.2 21.6
-4 14 -20 54.44 27.95
4 14 19 24.77 18.54
-14 -4 -19 12.54 20.36
-4 14 -19 15.27 26.18
4 14 18 60.27 19.01
-4 14 -18 -2.48 25.97
-14 -4 -18 23.23 20.23
-4 14 -17 53.24 20.95
4 14 17 49.93 18.53
-14 -4 -17 1.07 19.07
-4 14 -17 61.54 25.54
-4 14 -16 81.16 25.38
-4 14 -16 99.35 21.41
4 -14 -16 66.98 21.24
4 14 16 81.9 19.46
-14 -4 -16 95.9 20.31
-4 14 -15 31.13 23.04
-14 -4 -15 31.79 18.49
-4 14 -15 27.47 19.4
4 -14 -15 12.62 19.93
4 14 15 33.4 17.49
-4 14 -14 -0.96 18.34
4 14 14 15.57 17.23
4 -14 -14 -1.92 20.15
-14 -4 -14 10.52 17.42
-4 14 -13 17.07 18.41
4 14 13 9.91 17.3
4 -14 -13 0.95 20.49
-14 -4 -13 -6.43 17.54
-4 14 -12 107.13 19.37
4 14 12 127.46 19.75
4 -14 -12 77.29 21.93
-14 -4 -12 102.08 18.93
-4 14 -11 29.56 17.84
4 14 11 46.49 18.03
-14 -4 -11 10.93 16.19
4 -14 -11 33.22 20.68
-4 14 -10 8.09 16.6
-14 -4 -10 23.25 15.9
4 -14 -10 25.59 20.18
4 -14 -9 52.15 20.73
4 -14 -8 124.61 23.62
4 -14 -8 101.93 21.01
4 -14 -7 29.32 21.57
4 -14 -7 28.16 19.18
4 -14 -6 82.64 22.45
4 -14 -6 23.52 19.38
4 -14 -5 52.8 21.77
4 -14 -5 51.22 19.88
4 -14 -4 80.83 22.16
4 -14 -4 105.03 20.73
-4 -14 4 98.9 17.61
4 -14 -3 124.32 22.54
4 -14 -3 117.79 21.12
-4 -14 3 135.04 18.68
4 -14 -2 19.75 20.65
4 -14 -2 44.06 18.88
-4 -14 2 53.01 17.58
4 -14 -1 85.17 21.25
4 -14 -1 94.22 19.78
-4 -14 1 104.57 18.65
-4 -14 0 344.98 24.96
4 -14 0 356.82 26.77
-4 -14 -1 107.51 18.82
4 -14 1 92.09 20.09
-4 -14 -2 48.25 18.1
4 -14 2 33.34 18.73
-4 -14 -3 129.24 20.29
4 -14 3 166.43 21.73
-4 -14 -4 96.76 20.13
4 -14 4 99.58 21.52
-4 14 5 49.54 13.14
4 -14 5 20.43 19.24
-4 -14 -5 45.84 18.73
-14 4 -6 33.5 14.26
-4 14 6 62.23 14.37
4 -14 6 58.21 19.92
-4 -14 -6 64.61 19.3
-14 4 -7 25.92 14.57
-4 14 7 45.48 14.95
4 -14 7 9.09 19.47
-4 -14 -7 15.37 18.51
-4 -14 -8 112.69 20.78
-14 4 -8 74.57 16.16
4 -14 8 125.65 21.38
-4 14 8 118.94 16.77
-14 4 -9 51.37 15.58
-4 -14 -9 101.95 20.53
-4 14 9 54.24 16.1
-14 4 -10 6.42 15.29
-4 -14 -10 23.14 19.73
-4 14 10 20.66 16.04
-14 4 -11 50.18 17.05
-4 -14 -11 27.67 19.79
-4 14 11 26.3 16.49
-14 4 -12 108.66 18.25
-4 -14 -12 95.41 21.92
-4 14 12 102.77 18.16
-4 14 13 2.58 16.74
-4 -14 -13 -29.22 20.92
-4 -14 -14 -24.67 20.8
-14 4 -14 -3.83 17.04
-14 4 -14 2.91 19.2
-4 -14 -15 23.19 21.49
-14 4 -15 18.81 17.62
-14 4 -15 -22.26 20.46
-4 -14 -16 111.15 23.87
-14 4 -16 139.6 21.35
-14 4 -16 113.31 22.99
-14 4 -17 33.84 21.59
-14 4 -17 -1.05 18.13
-4 -14 -17 36.45 22.93
-14 4 -18 50.44 22.86
-14 4 -18 53.52 20.23
-4 -14 -18 72.23 23.72
-14 4 -19 40.11 23.93
-14 4 -19 48.15 20.2
-4 -14 -19 20.72 24.05
-14 4 -20 24.38 23.83
-14 4 -20 43.79 20.79
-4 -14 -20 83.24 25.75
-14 4 -21 -15.05 24.48
-14 4 -21 -4.6 19.9
-4 -14 -21 4.77 24.5
-14 4 -22 5.16 24.99
5 14 21 18.53 19.62
-14 -5 -21 -3.65 21.29
-5 14 -21 -12.42 28.4
5 14 20 -20.12 18.6
-5 14 -20 -2.68 27.87
-14 -5 -20 7.12 20.62
-5 14 -19 29.17 21.36
-5 14 -19 19.84 27.42
5 14 19 -10.32 18.83
-14 -5 -19 34.71 21.6
-5 14 -18 20.47 26.44
5 14 18 1.01 17.94
-14 -5 -18 -6.75 19.61
-5 14 -18 12.79 20.27
-5 14 -17 87.78 27.49
5 14 17 62.94 19.22
-14 -5 -17 63.28 20.97
-5 14 -17 66.29 21.09
-5 14 -16 65.89 25.81
5 14 16 39.31 18.66
-14 -5 -16 75.04 20.69
-5 14 -16 117.61 22.18
-5 14 -15 30.06 24.28
5 14 15 32.83 17.86
-14 -5 -15 44.93 19.38
-5 14 -15 29.31 19.46
5 14 14 45.85 17.81
5 -14 -14 -6.73 19.81
-14 -5 -14 48.22 18.65
-5 14 -14 58.5 19.56
5 14 13 35.12 17.89
5 -14 -13 53.31 20.96
-14 -5 -13 29.32 17.97
-5 14 -13 51.95 18.82
5 14 12 34.73 18.15
-5 14 -12 54.55 18.6
-14 -5 -12 11.78 17.39
5 -14 -12 47.94 20.42
-5 14 -11 72.16 18.79
-14 -5 -11 52.85 17.55
5 -14 -11 50 20.95
-5 14 -10 96.18 18.75
-14 -5 -10 55.37 17.47
5 -14 -10 45.69 20.74
5 -14 -9 163.55 25.47
-5 14 -9 131.7 20.04
5 -14 -9 135.76 22.28
5 -14 -8 47.51 20.78
5 -14 -8 50.71 22.69
5 -14 -7 60.38 20.23
5 -14 -7 1.04 20.85
5 -14 -6 67.43 20.27
5 -14 -6 85.13 22.88
5 -14 -5 177.7 22.4
5 -14 -5 159.26 24.19
5 -14 -4 124.36 20.79
5 -14 -4 138.63 23.65
5 -14 -3 -13.82 18.06
5 -14 -3 23.58 20.79
-5 -14 2 41.09 17.32
5 -14 -2 10.39 19.62
5 -14 -2 21.29 20.77
-5 -14 1 60.64 17.39
5 -14 -1 70.47 19.9
5 -14 -1 49.55 20.9
5 -14 0 127.71 21.31
-5 -14 0 103.5 18.73
5 -14 1 82.76 20.44
-5 -14 -1 88.15 18.47
5 -14 2 14.04 18.53
-5 -14 -2 -6.19 16.74
-5 -14 -3 21.93 17.25
5 -14 3 17.75 19.07
-5 -14 -4 137.29 20.43
5 -14 4 119.72 21.65
-14 5 -5 185.95 17.39
5 -14 5 168.5 22.95
-5 -14 -5 149.13 20.41
-14 5 -6 73.58 15.38
5 -14 6 79.42 20.58
-5 -14 -6 85.52 19.95
-5 -14 -7 22.45 18.5
-14 5 -7 -0.72 14.11
5 -14 7 -5.59 19.73
-5 14 7 21.65 14.1
-5 -14 -8 70.02 19.62
-14 5 -8 77.69 16
-5 14 8 32.09 14.97
-5 -14 -9 150.33 21.82
-14 5 -9 135.1 17.99
-5 14 9 167.12 18.05
-5 -14 -10 22.59 19.68
-14 5 -10 51.67 16.25
-5 14 10 50.58 16.2
-5 -14 -11 58.2 20.08
-14 5 -11 54.73 16.74
-14 5 -11 64.73 19.67
-5 14 11 55.27 17.43
-14 5 -12 17.56 16.05
-5 -14 -12 7.95 20.22
-14 5 -12 6.54 19.33
-14 5 -13 26.48 16.94
-5 -14 -13 53.96 21.29
-14 5 -13 19.3 19.05
-14 5 -14 58.09 18.37
-14 5 -14 43.33 20.27
-5 -14 -14 76.23 22.18
-5 -14 -15 49.36 21.68
-14 5 -15 37.89 18.38
-14 5 -15 55.67 21.19
-5 -14 -16 92.43 24.09
-14 5 -16 102.28 20.36
-14 5 -16 59.6 21.98
-5 -14 -17 68.68 23.36
-14 5 -17 24.42 19.98
-14 5 -17 48.32 23
-5 -14 -18 30.97 23.26
-14 5 -18 -6.52 18.86
-14 5 -18 6.95 22.53
-14 5 -19 49.7 23.82
-5 -14 -19 -12.88 23.01
-14 5 -19 3.33 19.73
-14 5 -20 -19.97 24.61
-5 -14 -20 -14.32 23.91
-14 5 -20 -7.93 20.11
-14 5 -21 -19.25 24.6
-14 5 -21 9.28 20.12
-6 14 -21 41.05 29.19
6 14 21 6.5 18.85
-6 14 -20 6.82 21.79
6 14 20 -9.5 18.79
-6 14 -20 51.03 28.15
-14 -6 -20 14.51 21.49
-6 14 -19 6.69 21.52
-6 14 -19 -13.63 27.61
6 14 19 10.34 18.73
-14 -6 -19 41.31 22.03
-6 14 -18 -1.32 26.68
6 14 18 6.07 18.38
-14 -6 -18 11.46 20.31
-6 14 -18 35.27 21.01
-6 14 -17 29.8 26
6 14 17 32.62 18.44
-14 -6 -17 12.25 19.89
-6 14 -17 8.66 20.88
-6 14 -16 10.1 25.93
6 14 16 19.35 18.46
-14 -6 -16 52.74 19.85
-6 14 -16 58.94 20.89
-6 14 -15 62.32 25.4
6 14 15 54.9 18.27
-6 14 -15 90.77 20.87
-14 -6 -15 46.82 19.64
6 14 14 -0.95 17.54
-14 -6 -14 -11.03 17.98
-6 14 -14 17.36 18.82
6 14 13 17.97 18.09
-6 14 -13 41.22 19.52
-14 -6 -13 49.21 18.47
6 -14 -13 58 20.02
-6 14 -12 67.91 19.29
-14 -6 -12 54.61 18.78
6 -14 -12 96.67 20.84
-6 14 -11 14.47 18.14
-14 -6 -11 33.63 17.62
6 -14 -11 26.06 20.29
-6 14 -10 -11.46 17.4
6 -14 -10 62.68 23.95
6 -14 -10 35.96 20.64
-6 14 -9 38 18
6 -14 -9 71.45 23.71
6 -14 -9 63.06 20.98
-6 14 -8 16.46 17.22
6 -14 -8 40.15 21.06
6 -14 -8 -16.19 22.26
6 -14 -7 32.44 20.04
6 -14 -7 35.28 22.56
6 -14 -6 30.35 19.76
6 -14 -6 15.65 21.81
6 -14 -5 32.79 20.1
6 -14 -5 60.03 22.82
6 -14 -4 77.55 20.77
6 -14 -4 88.25 23.18
6 -14 -3 41.55 19.86
6 -14 -3 1.01 20.71
6 -14 -2 93.1 20.48
6 -14 -2 100.46 21.84
-6 -14 1 78.33 17.47
6 -14 -1 74.29 19.75
6 -14 -1 42.27 21.3
6 -14 0 17.74 19.17
-6 -14 0 5.91 16.4
6 -14 1 89.34 20.85
-6 -14 -1 87.03 18.43
6 -14 2 59.61 20.87
-6 -14 -2 102.94 18.61
6 -14 3 37.54 20.01
-6 -14 -3 31.82 17.64
6 -14 4 96.32 21.5
-6 -14 -4 87.28 18.86
6 -14 5 27.16 19.91
-14 6 -5 40.05 14.22
-6 -14 -5 41.84 18.57
6 -14 6 27.45 19.41
-14 6 -6 14.91 14.31
-6 -14 -6 28.71 18.5
-14 6 -7 44.57 15.29
-6 -14 -7 41.67 19.14
-14 6 -8 -5.41 14.78
-6 -14 -8 8.05 18.72
-14 6 -9 65.63 16.15
-14 6 -9 76.41 19.55
-6 14 9 34.45 15.93
-6 -14 -9 35.16 19.37
-6 -14 -10 0.95 19.42
-14 6 -10 21.45 15.49
-14 6 -10 13.4 18.31
-6 -14 -11 39.07 19.96
-14 6 -11 26.48 15.94
-14 6 -11 0.93 19.21
-6 -14 -12 62.3 21.17
-14 6 -12 44.25 17.1
-14 6 -12 69.5 20.54
-6 -14 -13 8.28 20.66
-14 6 -13 43.22 17.49
-14 6 -13 16.2 19.7
-6 -14 -14 18.1 21.42
-14 6 -14 0.96 17.07
-14 6 -14 6.25 20.33
-6 -14 -15 87.42 23.49
-14 6 -15 58.56 21.98
-14 6 -15 22.76 18.15
-14 6 -16 42.34 19.07
-14 6 -16 65.33 22.75
-6 -14 -16 48.07 23
-14 6 -17 36.54 19.36
-14 6 -17 9.26 21.87
-6 -14 -17 58.05 23.2
-14 6 -18 -9.96 19.64
-14 6 -18 -9.56 23.22
-6 -14 -18 11.58 23.69
-14 6 -19 -1.13 19.59
-6 -14 -19 -33.1 23.94
-14 6 -19 -54.05 24.09
-6 -14 -20 3.6 24.08
-14 6 -20 13.84 20.28
-14 6 -20 -37.15 24.95
-14 6 -21 3.95 24.57
7 14 21 25.79 18.86
-7 14 -21 10.63 22.67
7 14 20 14.74 18.25
-7 14 -20 38.62 22.6
-7 14 -20 -5.67 28.74
7 14 19 20.71 18.95
-7 14 -19 1.4 27.97
-7 14 -19 60.77 23.15
7 14 18 39.59 18.94
-7 14 -18 10.19 21.41
-7 14 -18 1.36 27.23
-7 14 -17 74.11 21.8
-7 14 -17 20.06 26.23
7 14 17 44.72 19.09
-14 -7 -17 22.54 20.54
-7 14 -16 64.69 21.3
-7 14 -16 -7.83 26.07
7 14 16 49.1 19.05
-14 -7 -16 37.16 20.32
-7 14 -15 29.14 20.36
-7 14 -15 29.67 26.21
-14 -7 -15 38.05 20.23
7 14 15 63.57 19.08
-14 -7 -14 1.02 18.59
-7 14 -14 -9.42 19.02
-14 -7 -13 87.35 20.08
-7 14 -13 71.71 19.46
7 14 13 69.43 19.67
7 -14 -12 7.12 24.3
-7 14 -12 14.16 18.17
7 -14 -11 69.61 24.67
7 -14 -11 100.42 20.96
-7 14 -11 81.82 19.65
7 -14 -10 4.57 23.27
7 -14 -10 59.06 20.73
-7 14 -10 50.56 18.34
7 -14 -9 44.83 22.89
7 -14 -9 -3.7 20.58
-7 14 -9 39.11 17.49
7 -14 -8 37.77 23.2
7 -14 -8 -12.83 20.28
-7 14 -8 12.99 17.08
7 -14 -7 29.1 20.22
7 -14 -7 95.32 23.72
7 -14 -6 19.84 19.39
7 -14 -6 11.79 22.68
7 -14 -5 138.05 22.32
7 -14 -5 190.92 26
7 -14 -4 110.42 21.73
7 -14 -4 89.25 23.56
7 -14 -3 53.38 20.63
7 -14 -3 58.97 22.98
7 -14 -2 9.92 19.72
7 -14 -2 2.04 20.93
7 -14 -1 -5.43 19.25
7 -14 0 63.75 20.08
-7 -14 -1 26.83 16.66
7 -14 1 22.99 19.27
7 -14 2 31.68 20.61
-7 -14 -2 -6.83 16.3
7 -14 3 60.29 20.73
-7 -14 -3 70.67 18.13
7 -14 4 85.64 21.15
-7 -14 -4 67.06 18.48
-14 7 -4 82.6 14.95
7 -14 5 156 22.99
-7 -14 -5 132.99 20.66
-14 7 -5 123.87 16.37
7 -14 6 3.89 20.4
-14 7 -6 24.24 14.73
-7 -14 -6 14.45 18.73
-7 -14 -7 38.45 18.61
-14 7 -7 28.83 14.88
-7 -14 -8 -9.06 19.1
-14 7 -8 15.81 14.91
-7 -14 -9 33.76 19.19
-14 7 -9 23.89 15.82
-14 7 -10 -1.89 19.16
-7 -14 -10 5.77 19.54
-14 7 -10 7.67 15.53
-14 7 -11 30.24 19.65
-7 -14 -11 82.24 21.27
-14 7 -11 77.19 17.34
-14 7 -12 34.46 20.09
-7 -14 -12 64.43 21.94
-14 7 -12 33.45 17.06
-14 7 -13 58.59 21.49
-7 -14 -13 70.5 22.09
-14 7 -13 39.21 17.33
-14 7 -14 7.65 20.7
-7 -14 -14 27 21.39
-14 7 -14 7.71 17.39
-14 7 -15 -4.49 21.27
-7 -14 -15 -20.96 22
-14 7 -15 38.99 18.25
-14 7 -16 34.89 22.65
-14 7 -16 39.27 19.61
-7 -14 -16 45.1 22.88
-7 -14 -17 -2.3 22.66
-14 7 -17 17.15 18.96
-14 7 -17 1.2 23.26
-7 -14 -18 45.69 23.75
-14 7 -18 41.25 19.86
-14 7 -18 -9.86 24.33
-7 -14 -19 68.17 24.94
-14 7 -19 24.1 20.57
-14 7 -19 22.84 24.65
-7 -14 -20 21.93 24.94
-14 7 -20 3.51 20.78
-14 7 -20 19.47 24.63
-8 14 -20 -8.4 22.64
8 14 19 1.03 18.26
-8 14 -19 -31.81 22.2
-8 14 -19 -20.16 28.34
8 14 18 6.1 18.02
-8 14 -18 -4.62 21.4
-8 14 -18 22.41 27.37
8 14 17 -1 17.73
-8 14 -17 -1.14 21.04
-8 14 -17 35.83 27.36
8 14 16 26.01 18.75
-8 14 -16 44.67 21.09
-8 14 -16 67.27 27.69
8 14 15 39.66 18.38
-8 14 -15 22.12 20.61
-8 14 -15 3.99 25.83
-8 14 -14 -6.44 19.65
8 14 14 1.98 18.7
8 -14 -13 47.7 25.81
-8 14 -13 36.74 19.9
8 -14 -12 79.06 25.94
-8 14 -12 54.53 19.71
8 -14 -11 12.99 24.15
-8 14 -11 12.13 17.97
8 -14 -10 -19.73 23.43
-8 14 -10 22.69 17.64
8 -14 -9 10.27 20.92
-8 14 -9 -1.95 17.33
8 -14 -8 53.89 23.82
8 -14 -8 57.36 21.02
-8 14 -8 53.2 18.31
-8 14 -7 51.96 17.94
8 -14 -7 82.06 22.09
8 -14 -7 77.78 24.02
8 -14 -6 51.65 21.22
8 -14 -6 61.84 23.37
8 -14 -5 66.51 21.09
8 -14 -5 63.05 23.26
8 -14 -4 120.61 21.91
8 -14 -4 70.8 22.94
8 -14 -3 119.62 21.98
8 -14 -3 99.74 23.82
8 -14 -2 157.92 22.74
8 -14 -1 13.01 19.99
8 -14 0 295.51 26.65
8 -14 1 12.35 20.22
8 -14 2 193.61 24.19
8 -14 3 98.67 22.43
-8 -14 -3 124.3 19.45
-14 8 -4 92.78 15.54
8 -14 4 87.05 21.7
-8 -14 -4 97.2 19.46
-14 8 -5 47.02 14.81
8 -14 5 74.92 21.37
-8 -14 -5 73.57 19.03
-8 -14 -6 74.1 19.65
-14 8 -6 48.97 15.07
-8 -14 -7 47.73 19.45
-14 8 -7 58 15.76
-8 -14 -8 30.31 19.02
-14 8 -8 62.8 15.99
-14 8 -9 22.71 15.73
-8 -14 -9 8.5 19.44
-14 8 -10 10.49 15.68
-8 -14 -10 5.84 19.46
-8 -14 -11 18.11 20.39
-14 8 -11 29.03 16.78
-14 8 -11 46.26 20.38
-8 -14 -12 32.18 20.82
-14 8 -12 23.28 17.16
-14 8 -12 21.19 21.07
-8 -14 -13 13.79 20.77
-14 8 -13 7.64 17.21
-8 -14 -14 20.66 21.63
-14 8 -14 37.32 18.07
-14 8 -14 26.02 22.27
-8 -14 -15 62.36 23.37
-14 8 -15 26.31 18.63
-14 8 -15 50.61 23.47
-8 -14 -16 25.06 22.34
-14 8 -16 12.55 18.41
-14 8 -16 39.69 23.5
-8 -14 -17 -29.11 23.3
-14 8 -17 3.73 23.51
-14 8 -17 20.51 19.37
-8 -14 -18 -10.71 23
-14 8 -18 -12.81 24.35
-14 8 -18 27.74 19.76
-8 -14 -19 35.18 24.55
-14 8 -19 -14.38 24.84
-14 8 -19 5.78 20.46
-14 8 -20 32.14 26.31
-9 14 -19 -1.21 22.28
9 14 18 37.73 18.78
-9 14 -18 29.47 22.43
-9 14 -18 -30.16 28.01
9 14 17 4.02 18.02
-9 14 -17 -16.97 27.71
-9 14 -17 -2.33 21.6
9 14 16 -6.07 18.13
-9 14 -16 11.06 26.76
-9 14 -16 20.44 20.52
9 14 15 39.36 19.34
9 -14 -15 70.53 27.66
-9 14 -15 57.51 27.37
-9 14 -15 40.44 20.58
9 -14 -14 25.17 26.36
9 14 14 40.28 19.23
-9 14 -14 18.77 19.69
9 -14 -13 40.92 26.35
-9 14 -13 28.89 19.33
9 -14 -12 99.83 27.34
-9 14 -12 92.1 20.16
9 -14 -11 90 26.18
-9 14 -11 88.48 19.78
9 -14 -10 -19.03 24.51
-9 14 -10 1.01 18.34
9 -14 -9 66.09 24.65
-9 14 -9 37.38 17.31
9 -14 -8 -7.56 21.14
-9 14 -8 -5.83 17.41
9 -14 -7 65.07 24.41
9 -14 -7 78.45 22.41
-9 14 -7 81.13 18.21
9 -14 -6 26.98 23.3
9 -14 -6 28.26 21.27
-9 14 -6 47.08 17.19
9 -14 -5 62.85 21.63
9 -14 -5 23.31 23.45
9 -14 -4 113.72 22.26
9 -14 -4 130.81 24.97
9 -14 -3 51.91 21.74
9 -14 -3 30.22 22.01
9 -14 -2 87.38 21.71
9 -14 -1 175.45 24.06
9 -14 0 4.85 20.96
9 -14 1 176.48 24.65
9 -14 2 31.5 20.85
9 -14 3 51.59 21.17
-14 9 -4 95.05 15.76
9 -14 4 70.11 21.81
-14 9 -5 36.71 15.39
-9 -14 -6 38.54 18.27
-14 9 -6 0.79 14.73
-9 -14 -7 15.18 18.61
-14 9 -7 63.38 15.93
-9 -14 -8 -7.4 18.83
-14 9 -8 1.67 15.22
-9 -14 -9 25.72 19.92
-14 9 -9 30.55 16.13
-14 9 -10 29.55 16.35
-9 -14 -10 10.85 20.06
-14 9 -11 26.14 21.13
-14 9 -11 37.14 17.15
-9 -14 -11 69.35 21.23
-14 9 -12 65.64 22.51
-14 9 -12 68.27 18.64
-9 -14 -12 87.23 22.22
-14 9 -13 13.76 21.53
-14 9 -13 27.65 18.17
-9 -14 -13 6.44 21.23
-14 9 -14 15.33 22.43
-14 9 -14 7.05 18.1
-9 -14 -14 -24.23 21.81
-14 9 -15 -7.3 23.13
-14 9 -15 26.89 18.47
-9 -14 -15 40.52 23.11
-14 9 -16 -11.32 23.54
-14 9 -16 -1.06 18.71
-9 -14 -16 -26.58 23.43
-14 9 -17 6.4 24.52
-14 9 -17 -22.93 19.29
-9 -14 -17 8.27 23.14
-14 9 -18 33.12 25.46
-14 9 -18 -5.62 19.88
-9 -14 -18 37.4 23.94
-14 9 -19 -1.35 25.47
-10 14 -18 -22.87 22.1
10 -14 -17 13.33 28.71
-10 14 -17 -13.01 28.07
-10 14 -17 -37.74 21.74
10 -14 -16 24.91 27.36
10 14 16 34.62 18.52
-10 14 -16 21.24 27.07
-10 14 -16 -8.14 21
10 -14 -15 29.7 27.8
10 14 15 2.04 18.51
-10 14 -15 29.38 27.1
-10 14 -15 5.67 20.25
10 14 14 44.8 19.55
-10 14 -14 23.63 20.18
10 -14 -14 40.71 27.58
-10 14 -13 44.95 20.62
10 -14 -13 68.9 27.42
-10 14 -12 44.76 20
10 -14 -12 19.87 26.53
-10 14 -11 17.69 18.8
10 -14 -11 61.11 26.51
-10 14 -10 18.5 18.31
10 -14 -10 44.25 25.48
-10 14 -9 5.99 17.18
10 -14 -9 34.31 24.92
-10 14 -8 39.09 18.09
10 -14 -8 77.63 25.15
-10 14 -7 16.4 17.45
10 -14 -7 55.61 24.64
-10 14 -6 26.23 16.98
10 -14 -6 64.23 22.27
10 -14 -6 56.05 23.88
-10 14 -5 3.67 16.12
10 -14 -5 15.38 21.6
10 -14 -5 19.03 22.88
10 -14 -4 29.91 20.9
10 -14 -4 -11.1 22.8
10 -14 -3 8.74 21.4
10 -14 -2 82.32 22.49
10 -14 -1 25.69 21.82
10 -14 0 24.82 21.3
10 -14 1 89.33 22.54
10 -14 2 86.88 22.78
-14 10 -3 35.62 14.91
-14 10 -4 50.47 15.12
-14 10 -5 41.04 15.17
-14 10 -6 35.29 15.46
-14 10 -7 10.21 15.7
-10 -14 -8 44.69 19.57
-14 10 -8 61.11 16.84
-10 -14 -9 34.66 20.83
-14 10 -9 16.99 15.99
-10 -14 -10 11.97 20.06
-14 10 -10 -10.24 16.03
-10 -14 -11 39.13 21.16
-14 10 -11 43.86 17.76
-14 10 -12 54.21 23.25
-10 -14 -12 8.43 20.96
-14 10 -12 50.24 18.41
-14 10 -13 17.97 23.28
-10 -14 -13 45.54 22.02
-14 10 -13 47.8 19.53
-14 10 -14 4.94 23.49
-10 -14 -14 41.1 22.43
-14 10 -14 -19.79 18.43
-10 -14 -15 -10.27 22.55
-14 10 -15 -12.73 18.78
-14 10 -16 19.54 24.87
-10 -14 -16 -9.36 23.52
-14 10 -16 10.85 19.29
-14 10 -17 33.34 24.99
-10 -14 -17 3.59 22.92
-14 10 -17 4.44 19.42
-14 10 -18 2.72 26.3
-10 -14 -18 -15.89 23.72
-14 10 -18 17.09 19.76
-11 14 -17 70.64 22.82
11 -14 -17 61.46 29.46
-11 14 -16 25.97 21.65
11 -14 -16 46.21 29.48
-11 14 -16 24.58 28.35
-11 14 -15 -20.71 20.61
11 -14 -15 -18.2 27.88
-11 14 -15 -12.81 26.98
-11 14 -14 -11.35 19.89
11 -14 -14 46.41 28.34
-11 14 -13 41.38 20.35
11 -14 -13 -5.1 27.39
-11 14 -12 28.21 18.93
11 -14 -12 35.01 26.61
-11 14 -11 21.14 18.49
11 -14 -11 18.42 25.51
-11 14 -10 21.68 18.36
11 -14 -10 6.1 26.12
-11 14 -9 23.44 18.1
11 -14 -9 41.15 25.51
-11 14 -8 59.45 18.32
11 -14 -8 33.33 25.65
-11 14 -7 14.53 16.92
11 -14 -7 14.11 24.72
-11 14 -6 15.3 16.94
11 -14 -6 9.2 23.53
-11 14 -5 44.66 17.15
11 -14 -5 14.82 23.26
-11 14 -4 33.52 16.85
11 -14 -4 13.93 22.12
11 -14 -3 62.25 22.93
11 -14 -2 13.08 21.32
11 -14 -1 51.68 22.53
11 -14 0 62.43 22.88
11 -14 1 61.56 22.6
-14 11 -3 -1.57 14.21
-14 11 -4 15.26 14.77
-14 11 -5 42.1 15.8
-14 11 -6 6.8 15.1
-14 11 -7 44.1 16.06
-14 11 -8 34.67 16.87
-14 11 -9 25.21 17.17
-11 -14 -10 -1.01 20.33
-14 11 -10 31.49 17.42
-11 -14 -11 1.04 20.93
-14 11 -11 12.87 17.39
-11 -14 -12 12.81 21.58
-14 11 -12 18.2 18.11
-11 -14 -13 1.09 22.08
-14 11 -13 -7.3 18.41
-14 11 -13 -18.87 24.15
-11 -14 -14 7.88 22.4
-14 11 -14 30.06 19.13
-14 11 -14 -9 23.65
-11 -14 -15 69.38 23.9
-14 11 -15 -2.19 18.68
-14 11 -15 39.47 25.44
-11 -14 -16 48.59 24.08
-14 11 -16 33.43 19.82
-14 11 -16 25.59 25.48
-11 -14 -17 10.91 23.44
-14 11 -17 26.36 26.2
-14 11 -17 18.13 19.89
-14 -12 -16 54.84 23.48
-12 14 -15 5.87 20.99
-12 14 -15 2.89 26.98
12 -14 -15 10.55 27.46
-12 14 -14 -4.57 20.33
-12 14 -14 51.55 27.49
12 -14 -14 3.9 27.16
-12 14 -13 25.87 20.05
12 -14 -13 14.01 26.7
-12 14 -12 34.36 19.77
12 -14 -12 29.04 27.48
-12 14 -11 47.28 19.45
12 -14 -11 -1.25 27.42
-12 14 -10 44.05 19.11
12 -14 -10 40.9 27.27
-12 14 -9 18.41 18.41
12 -14 -9 81.74 27.95
-12 14 -8 29.26 18.29
12 -14 -8 44.51 26.37
-12 14 -7 51.98 18.18
12 -14 -7 42.44 25.57
-12 14 -6 50.81 17.92
12 -14 -6 12.85 24.18
-12 14 -5 34.84 17.02
-12 14 -4 37.82 17.01
-12 14 -3 47.47 16.76
12 -14 -2 81.84 24.23
-12 14 -2 115.98 17.59
12 -14 -1 53.02 23.35
12 -14 0 108.7 24.3
-14 12 -3 -9.04 14.77
-14 12 -4 44.06 16.3
-14 12 -5 13.82 15.81
-14 12 -6 16.9 16.3
-14 12 -7 17.37 16.08
-14 12 -8 30.37 17.2
-14 12 -9 18.54 17.3
-14 12 -10 19.87 17.48
-14 12 -11 18.28 18.04
-14 12 -12 8.39 18.91
-12 -14 -13 -23.17 22.54
-14 12 -13 19.88 25.02
-14 12 -13 11.78 18.55
-12 -14 -14 54.54 23.5
-14 12 -14 5.35 24.97
-14 12 -14 46.24 19.67
-12 -14 -15 -22.18 22.92
-14 12 -15 -9.6 26.15
-14 12 -15 -30.5 20.13
-14 12 -16 23.73 27.11
-12 -14 -16 4.78 23.62
-13 14 -14 13.08 27.22
-13 14 -14 20.91 20.57
-13 14 -13 30.48 20
13 -14 -12 40.94 25.77
-13 14 -12 22.31 19.48
13 -14 -11 63.12 26.75
-13 14 -11 60.24 19.89
13 -14 -10 48.57 26.37
-13 14 -10 -10.62 18.13
13 -14 -9 57.65 27.03
-13 14 -9 53.81 19.23
13 -14 -8 38.34 26.38
-13 14 -8 47.48 18.19
13 -14 -7 23.9 25.99
-13 14 -7 7.94 17.84
-13 14 -6 -10.67 17
-13 14 -5 64.31 17.82
-13 14 -4 -18.53 16.44
-13 14 -3 3.65 16.26
-13 14 -2 12.39 15.59
-13 14 -1 61.35 16.99
-13 14 0 153.86 18.51
-14 13 -3 22.45 15.75
-14 13 -4 9.77 15.95
-14 13 -5 52.15 17.67
-14 13 -6 19.5 16.37
-14 13 -7 25.78 16.74
-14 13 -8 41.15 18.02
-14 13 -9 72.02 18.78
-14 13 -10 15.58 18.27
-14 13 -11 89.39 20.05
-14 13 -12 17.28 19.57
-14 13 -13 49.79 27
-14 13 -13 14.37 19.47
-14 13 -14 19.2 20.11
-14 13 -14 -29.32 27.15
-14 14 -3 42.78 17.11
-14 14 -4 3.72 16.51
-14 14 -5 -7.65 16.95
-14 14 -6 -8.78 16.64
-14 14 -7 15.95 17.51
-14 14 -8 40.81 18.43
14 -14 -8 104.64 24.94
-14 14 -9 38.86 18.71
-14 14 -10 29.17 19.12
-14 14 -11 -1.1 18.46
-14 14 -12 36.73 19.74
0 -15 0 15.44 18.89
0 -15 0 -9.98 18.48
0 -15 1 45.91 18.81
0 -15 -1 9.56 18.87
0 -15 -1 64.58 19.59
0 -15 -2 29.61 19.57
0 -15 2 34.8 19.07
0 -15 -2 25.19 19.75
0 -15 -3 64.02 19.59
0 -15 3 98.79 20.05
0 -15 -3 84.77 21.12
0 -15 -4 35.44 19.63
0 -15 4 24.57 17.95
0 -15 -4 21.55 19.95
0 -15 -5 -0.9 18.44
0 -15 5 16.13 18.06
0 -15 -5 35.86 20.56
0 -15 -6 21.86 19.48
0 -15 -6 38.47 21.01
0 -15 6 29.1 18.34
0 -15 -7 77.42 19.89
0 -15 -7 51.88 21.63
0 -15 7 57.13 19.48
0 15 7 68.07 17.22
0 -15 -8 -0.93 19.37
0 -15 8 4.36 18.57
0 15 8 24.24 16.52
0 15 9 53.4 17.19
0 -15 -9 20.79 19.08
0 -15 9 67.96 19.97
0 15 10 18.82 16.62
0 -15 10 -14.15 18.16
0 -15 -10 0.95 19.96
-15 0 -10 43.4 16.69
0 -15 -11 63.01 20.84
-15 0 -11 34.23 17.16
0 15 11 88.62 17.79
0 -15 -12 60.28 21.23
-15 0 -12 70.55 18.36
0 15 12 35.97 17.09
0 -15 -13 -5.03 20.41
-15 0 -13 12.1 17.33
0 15 13 18.57 17.1
0 -15 -14 29.69 21.21
-15 0 -14 6.8 17.37
0 15 14 9.16 17.34
0 -15 -15 12.45 20.74
-15 0 -15 -9.08 17.88
0 15 15 14.16 17.64
0 -15 -16 11.61 21.87
-15 0 -16 -3.15 18.75
0 15 16 14.64 18.07
0 -15 -17 -10.74 22.56
-15 0 -17 34.59 19.9
0 15 17 11.15 18.64
0 -15 -18 12.04 23.52
-15 0 -18 12.17 19.4
0 15 18 16.86 19.4
0 -15 -19 21.11 23.26
-15 0 -19 11.34 20.29
0 -15 -20 -4.5 23.51
-15 0 -20 1.16 19.58
0 -15 -21 37.62 24.99
-15 0 -21 11.8 21.11
-15 -1 -21 27.17 21.39
1 -15 -20 43.05 24
-15 -1 -20 4.62 20.03
1 -15 -19 19.67 23.32
-15 -1 -19 37.3 21.17
1 15 19 19.5 19.62
1 -15 -18 18.35 22.7
-15 -1 -18 -8.81 19.02
1 15 18 16.72 19.4
1 -15 -17 33.04 23.55
-15 -1 -17 30.11 19.2
1 15 17 4.04 18.67
1 -15 -16 96.68 23.19
-15 -1 -16 76.38 20.71
1 15 16 67.52 19.49
1 -15 -15 16.54 20.85
-15 -1 -15 20.23 18.44
1 15 15 -6.66 17.87
1 -15 -14 4.07 20.9
-15 -1 -14 -5.87 17.53
1 15 14 55.24 18.16
1 -15 -13 53.89 21.18
-15 -1 -13 74.97 18.89
1 15 13 14.3 17.14
-1 15 -12 27.86 17.96
1 -15 -12 74.4 20.95
-15 -1 -12 30.14 18.01
1 15 12 79.66 18.18
-1 15 -11 65.92 18.79
1 -15 -11 70.88 21.1
-15 -1 -11 65.72 18.26
1 15 11 57.46 17.89
1 -15 -10 4.81 19.7
1 15 10 -2.51 16.79
-15 -1 -10 3.34 16.13
1 -15 -9 57.95 20.54
-1 -15 9 46.02 18.75
1 15 9 67.7 18.08
1 -15 -8 112.47 21.55
-1 -15 8 99.27 20.11
1 -15 -7 57.53 20.28
-1 -15 7 62.14 18.92
1 -15 -7 44.38 21.39
1 -15 -6 57.72 19.92
-1 -15 6 37.41 18.24
1 -15 -6 42.55 21.37
1 -15 -5 183.87 23.14
-1 -15 5 165.75 21.75
1 -15 -5 190.9 24.15
1 -15 -4 53.58 19.63
-1 -15 4 74.1 19.62
1 -15 -4 40.78 20.91
1 -15 -3 130.5 21.31
-1 -15 3 122.24 20.49
1 -15 -3 132.52 22.63
-1 -15 2 17.43 17.69
1 -15 -2 23.03 18.96
1 -15 -2 19.86 20.32
-1 -15 1 105.71 20.02
1 -15 -1 70.77 20.15
1 -15 -1 84.75 20.95
1 -15 0 109.34 20.89
-1 -15 0 85.89 19.92
1 -15 0 132.21 21.59
-1 -15 0 89.69 19.35
1 -15 1 74.17 19.81
-1 -15 -1 70.83 19.56
-1 -15 -1 69.97 19.71
-1 -15 -2 29.28 18.87
1 -15 2 21.71 19.05
-1 -15 -2 -5 18.73
-1 -15 -3 143.3 21.23
1 -15 3 122.31 20.94
-1 -15 -3 120.86 21.31
-1 -15 -4 76.99 20.19
1 -15 4 45.07 19.5
-1 -15 -4 77.22 20.72
-1 -15 -5 154.9 21.86
1 -15 5 172.65 21.95
-1 -15 -5 148.48 22.44
-1 -15 -6 59.73 19.82
-1 15 6 57.05 16.26
1 -15 6 30.84 19.26
-1 -15 -6 21.76 20.33
-1 15 7 37 16.25
-1 -15 -7 35.79 19.51
1 -15 7 11.62 18.8
-1 -15 -8 91.86 20.96
1 -15 8 103.31 20.84
-1 15 8 126 17.85
1 -15 9 76.3 20.13
-15 1 -9 61.94 16.63
-1 15 9 52.76 16.51
-1 -15 -9 34.68 20.32
-15 1 -10 -2.46 16.04
-1 15 10 -1.58 15.8
-1 -15 -10 -6.7 19.25
-15 1 -11 59.05 17.51
-1 15 11 58.12 17.32
-1 -15 -11 80.24 20.97
-15 1 -12 61.26 18.1
-1 15 12 82.25 17.95
-1 -15 -12 32.69 20.42
-15 1 -13 62.9 17.94
-1 15 13 24.59 17.1
-1 -15 -13 35.26 21.39
-15 1 -14 24.94 17.52
-1 15 14 11.83 17.2
-1 -15 -14 9.27 20.33
-15 1 -15 -15.88 18.38
-1 15 15 8.49 17.79
-1 -15 -15 32.63 22.13
-15 1 -16 97.61 20.64
-1 15 16 31.36 18.79
-1 -15 -16 63.32 23.02
-15 1 -17 31.93 19.9
-1 15 17 28.61 19.45
-1 -15 -17 6.55 22.5
-1 -15 -18 -1.11 22.96
-15 1 -18 8.82 19.32
-1 -15 -19 15.73 23.68
-15 1 -19 55.95 21.2
-1 -15 -20 30.79 24.22
-15 1 -20 5.82 20.54
-1 -15 -21 5.77 24.5
-15 1 -21 42.64 21.18
-15 -2 -21 4.72 20.53
2 15 20 -17.86 19.6
-15 -2 -20 11.61 20.23
2 15 19 -2.15 19.45
2 -15 -19 -4.34 21.66
-15 -2 -19 -1.13 19.94
2 15 18 16.65 18.89
2 -15 -18 11.79 22.61
-15 -2 -18 26.5 19.7
2 15 17 -1.01 18
2 -15 -17 26.39 22.76
-15 -2 -17 -12.89 19.55
2 15 16 26.56 18.61
2 -15 -16 48.82 22.47
-15 -2 -16 13.53 18.5
2 15 15 74.51 19.17
2 -15 -15 65.42 22.75
-15 -2 -15 40.28 18.75
2 15 14 -18.59 17.69
2 -15 -14 -5.02 21.24
-2 15 -14 15.27 19.14
-15 -2 -14 35.12 18.31
2 15 13 -0.9 17
2 -15 -13 12.98 21.3
-2 15 -13 -24.46 18.4
-15 -2 -13 -15.07 17.25
2 15 12 43.91 18.04
-15 -2 -12 44.47 17.85
-2 15 -12 59.9 18.55
2 -15 -12 26.66 20.77
-15 -2 -11 68.67 18.48
-2 15 -11 73.43 18.83
2 15 11 113.06 19.06
2 -15 -11 53.76 21.47
2 15 10 74.51 18.47
2 -15 -10 60.59 20.7
2 -15 -9 72.31 21.36
2 -15 -8 153.74 24.12
2 -15 -8 115.03 22.18
-2 -15 7 61.76 18.5
2 -15 -7 91.62 22.45
2 -15 -7 39.06 19.99
-2 -15 6 80.86 19.2
2 -15 -6 87.8 22.17
2 -15 -6 66.93 20.34
-2 -15 5 136.59 20.38
2 -15 -5 127.81 24.01
2 -15 -5 80.99 20.54
-2 -15 4 92.89 19.76
2 -15 -4 50.81 21.75
2 -15 -4 66.85 20.44
-2 -15 3 350.14 25.63
2 -15 -3 320.83 27.69
2 -15 -3 277.85 25.78
2 -15 -2 19.67 20.31
-2 -15 2 36.03 18.75
2 -15 -2 21.38 19.69
2 -15 -1 80.44 21.66
2 -15 -1 99.94 20.47
-2 -15 1 101.87 20.11
2 -15 0 80.61 21.42
2 -15 0 90.52 20.97
-2 -15 0 121.93 20.23
2 -15 1 136.16 21.2
-2 -15 -1 126.45 20.46
2 -15 2 15.05 19.01
-2 -15 -2 48.53 19.43
2 -15 3 298.44 25.34
-2 -15 -3 311.38 24.96
-2 -15 -3 300.63 25.27
2 -15 4 31.07 19.33
-2 -15 -4 61.8 19.54
-2 -15 -4 57.08 20.14
2 -15 5 102.16 20.88
-2 -15 -5 90.66 20.39
-2 15 5 122.9 17.12
-2 -15 -5 132.79 21.14
-2 -15 -6 90.07 20.46
-2 15 6 46.62 16.51
2 -15 6 88.08 20.55
-2 -15 -6 92.97 20.62
-2 15 7 66.4 16.33
2 -15 7 13.76 19.16
-2 -15 -7 69.89 19.8
-2 15 8 133.39 18.11
-2 -15 -8 165.39 22.64
2 -15 8 135.33 22.26
-15 2 -9 77.85 16.81
-2 15 9 108.94 17.19
2 -15 9 66.18 20.56
-2 -15 -9 63.31 20.86
-15 2 -10 89.34 17.76
-2 -15 -10 35.57 20.36
-2 15 10 72.6 17.09
-15 2 -11 65.03 17.91
-2 -15 -11 56.76 20.97
-2 15 11 56.79 17.13
-15 2 -12 42.08 17.61
-2 -15 -12 38.99 20.55
-2 15 12 64.82 17.52
-15 2 -13 15.72 16.92
-2 -15 -13 -8.19 20.7
-2 15 13 8.74 16.64
-15 2 -14 3.84 17.53
-2 -15 -14 23 21.67
-2 15 14 34.48 17.29
-15 2 -15 71.31 19.43
-2 -15 -15 42.6 21.92
-2 15 15 47.4 18.54
-15 2 -16 53.23 19.37
-2 -15 -16 35.72 22.29
-2 15 16 3.97 18.18
-15 2 -17 10.54 18.95
-2 -15 -17 -2.21 22.26
-15 2 -18 8.69 19.37
-2 -15 -18 27 23.64
-15 2 -19 39.19 20.05
-2 -15 -19 18.32 23.46
-15 2 -20 2.31 20.14
-2 -15 -20 33.73 24.83
-15 2 -21 -11.94 20.79
-2 -15 -21 -7.07 24.37
-15 -3 -20 -10.53 20.69
3 15 20 9.94 19.44
-15 -3 -19 13.65 20.23
3 15 19 26.78 19.05
-15 -3 -18 28.77 19.9
3 15 18 16.67 18.58
3 -15 -18 -25.34 21.16
-15 -3 -17 24.83 19.65
-3 15 -17 15.53 25.27
3 -15 -17 -33.52 22.39
3 15 17 40.64 18.72
3 -15 -16 46.67 22.69
-15 -3 -16 40.91 20.29
3 15 16 3.96 18.45
-3 15 -16 38.45 24.7
-3 15 -15 -5.72 23.58
3 15 15 4.82 17.89
-15 -3 -15 9.13 18.53
-3 15 -15 6.96 19.21
3 -15 -15 61.5 22.69
-15 -3 -14 23.52 18.12
3 -15 -14 34.51 21.82
3 15 14 6.57 17.38
-3 15 -14 20.78 19.31
-15 -3 -13 53.76 18.24
3 -15 -13 25.07 21.59
3 15 13 56.78 18.25
-3 15 -13 69.1 20.04
-15 -3 -12 108.74 19.27
3 -15 -12 109.72 22.64
3 15 12 118.95 20.06
-3 15 -12 115.35 20.59
-15 -3 -11 22.58 16.71
-3 15 -11 19.9 18.09
3 15 11 28.01 18.03
3 -15 -11 60.71 20.99
-3 15 -10 -20.68 17.99
3 15 10 5.33 17.35
3 -15 -10 3.87 20.19
3 -15 -9 93.6 23.4
3 -15 -9 129.31 22.76
3 -15 -8 36.2 23.34
3 -15 -8 65.06 21.05
3 -15 -7 265.16 27.03
3 -15 -7 187.84 23.83
3 -15 -6 23.76 21.57
3 -15 -6 25.92 19.74
-3 -15 5 7.12 17.62
3 -15 -5 29.14 21
3 -15 -5 54.23 20.27
-3 -15 4 250.65 23.1
3 -15 -4 300.01 27.4
3 -15 -4 289.18 25.48
3 -15 -3 36.44 21.4
-3 -15 3 19.09 18.13
3 -15 -3 40.77 19.64
3 -15 -2 17.44 20.72
3 -15 -2 -0.9 19.13
-3 -15 2 60.47 18.46
3 -15 -1 141.89 23.7
-3 -15 1 156.77 21.16
3 -15 0 249.81 25.05
-3 -15 0 228.28 23.03
3 -15 1 128.85 22.22
-3 -15 -1 190.23 21.96
3 -15 2 71.02 20.44
-3 -15 -2 30.5 18.99
-3 -15 -3 34.49 19.4
3 -15 3 39.73 20.04
-3 -15 -4 268.83 24.53
3 -15 4 242.99 24.6
-3 15 4 293.11 20.14
-3 -15 -5 34.51 19.16
3 -15 5 26.72 19.61
-3 15 5 9.07 14.53
-3 15 6 42.19 15.21
3 -15 6 40.16 20.49
-3 -15 -6 38.34 19.29
-3 15 7 242.43 19.87
-3 -15 -7 239 23.93
3 -15 7 243.81 25.05
-15 3 -8 59.25 16.12
3 -15 8 69.46 20.7
-3 15 8 57.81 16.09
-3 -15 -8 47.5 19.99
-3 15 9 105.52 17.84
-3 -15 -9 119.56 22.12
-15 3 -9 121.52 18.05
-3 15 10 19.39 16.08
-3 -15 -10 -1.93 19.44
-15 3 -10 11.01 15.94
-3 15 11 26.62 16.66
-3 -15 -11 9.9 20.24
-15 3 -11 38.76 16.62
-3 15 12 97.25 18.42
-3 -15 -12 77.94 21.94
-15 3 -12 121.95 19.38
-3 15 13 25.43 17.62
-3 -15 -13 35.18 21.41
-15 3 -13 52.7 17.93
-15 3 -14 41.8 18.52
-3 -15 -14 52.73 21.85
-3 15 14 5.51 17.45
-15 3 -15 20.96 18
-3 -15 -15 55.02 22.42
-3 15 15 3.84 18.23
-15 3 -16 40.95 18.87
-3 -15 -16 33.1 22.84
-15 3 -17 3.17 18.83
-3 -15 -17 -2.25 22.81
-15 3 -18 30.38 19.84
-3 -15 -18 31.03 23.76
-15 3 -19 -13.38 19.76
-3 -15 -19 -16.39 23.89
-15 3 -20 -5.71 20.01
-3 -15 -20 21.36 25.02
-15 -4 -20 7.16 20.86
4 15 20 38.44 19.95
-4 15 -19 13.05 27.34
-15 -4 -19 41.95 21.11
4 15 19 -34.23 19.39
-4 15 -18 21.51 26.98
-15 -4 -18 -12.47 20.19
4 15 18 16.74 18.61
-4 15 -17 -29.82 26.3
-4 15 -17 13.92 21.13
4 15 17 -7.14 18.36
-15 -4 -17 28.6 20.04
4 -15 -16 -8.32 20.75
-4 15 -16 23 24.82
-4 15 -16 1.05 20.19
4 15 16 55.8 19.3
-15 -4 -16 -34.02 19.55
4 -15 -15 63.75 22.26
-4 15 -15 53.77 25.29
-4 15 -15 31.93 20.28
4 15 15 34.05 19.22
-15 -4 -15 21.52 18.56
-4 15 -14 37.91 20.25
4 15 14 33.68 18.47
-15 -4 -14 4.93 18.01
4 -15 -14 19.25 21.75
-4 15 -13 34.09 19.69
4 15 13 2.85 17.9
-15 -4 -13 21.84 17.76
4 -15 -13 27.1 21.45
-4 15 -12 12.89 18.83
4 15 12 14.11 17.56
-15 -4 -12 28.23 17.64
4 -15 -12 48.71 22.15
-4 15 -11 17.62 18.39
4 15 11 34.33 18.93
4 -15 -11 18.7 20.88
4 -15 -10 37.48 23.59
4 -15 -10 -4.85 19.67
-4 15 -10 23.09 18.56
4 -15 -9 24.87 20.27
4 -15 -9 6.65 21.67
4 -15 -8 -10.47 20.35
4 -15 -8 20.73 22.12
4 -15 -7 93.27 21.6
4 -15 -7 118.26 24.19
4 -15 -6 36.48 20.61
4 -15 -6 37.04 22.39
4 -15 -5 99.87 21.63
4 -15 -5 87.97 22.59
4 -15 -4 83.97 21.18
4 -15 -4 78.42 22.87
-4 -15 4 77.17 18.27
-4 -15 3 97.66 18.65
4 -15 -3 90.71 21.53
4 -15 -3 83.2 22.9
4 -15 -2 68.28 20.01
-4 -15 2 119.91 19.71
4 -15 -2 67.89 22.61
-4 -15 1 66.79 18.86
4 -15 -1 36.34 20.96
4 -15 -1 34.74 19.93
-4 -15 0 4.07 17.49
4 -15 0 13.76 19.85
-4 -15 -1 41.28 18.52
4 -15 1 38.41 19.49
-4 -15 -2 47.14 19.34
4 -15 2 52.34 20
-4 -15 -3 91.35 19.6
4 -15 3 80.42 20.95
-4 -15 -4 55.52 19.43
4 -15 4 87.91 21.48
4 -15 5 111.14 22.21
-4 -15 -5 86.15 19.9
-4 15 6 24.52 14.12
4 -15 6 -6.69 20.25
-4 -15 -6 51.71 19.64
-4 15 7 101.29 16.62
-4 -15 -7 115.32 21.39
4 -15 7 88.2 21.88
-15 4 -8 0.77 14.54
4 -15 8 -8.77 19.62
-4 15 8 12 15.31
-4 -15 -8 9.3 19.24
-4 15 9 10.31 15.59
-4 -15 -9 13.32 19.42
-15 4 -9 -7.22 15.48
-4 15 10 31.55 15.96
-4 -15 -10 21.51 19.99
-15 4 -10 26.74 16.36
-4 15 11 -4.82 16.4
-4 -15 -11 28.06 20.22
-15 4 -11 4.39 16.41
-4 15 12 9.29 16.69
-15 4 -12 31.24 17.39
-4 15 13 9.74 17.46
-4 -15 -13 5.23 20.13
-15 4 -14 12.82 17.61
-4 -15 -14 28.98 21
-15 4 -15 55.76 19.38
-4 -15 -15 91.26 23.2
-15 4 -16 -19.76 18.54
-4 -15 -16 24.72 22.68
-15 4 -17 -7.45 18.49
-4 -15 -17 4.58 22.93
-15 4 -18 4.35 18.95
-4 -15 -18 -15.18 23.34
-15 4 -19 12.31 20.04
-4 -15 -19 20.12 24.08
-15 4 -20 29.74 20.57
-4 -15 -20 -7.21 24.28
-5 15 -20 14.99 29.19
-15 -5 -20 4.84 20.9
5 15 20 28.46 19.27
-5 15 -19 31.02 28.3
-15 -5 -19 41.34 21.2
5 15 19 -2.14 18.63
-5 15 -18 28.83 27.46
5 15 18 -6.31 18.82
-15 -5 -18 25.31 20.68
-5 15 -18 47.46 21.94
-5 15 -17 16.74 26.14
5 15 17 33.9 19.41
-15 -5 -17 62.62 21.22
-5 15 -17 28.69 21.43
-5 15 -16 13.82 25.6
-5 15 -16 7.59 20.6
5 15 16 29.1 18.64
-15 -5 -16 7.59 19.38
5 -15 -15 43.29 20.78
-5 15 -15 11.18 25.36
-5 15 -15 25.52 20.28
5 15 15 71.82 18.93
-15 -5 -15 27.23 19.46
-5 15 -14 12.57 19.67
5 15 14 12.79 18.37
-15 -5 -14 3.03 18.46
5 -15 -14 36.76 21.72
-5 15 -13 30.01 20.08
5 15 13 64.3 19.33
-15 -5 -13 47.71 18.58
5 -15 -13 107.81 22.85
-5 15 -12 97.58 20.61
5 15 12 57.91 19.39
5 -15 -12 53.67 22.01
5 -15 -11 37.78 24.1
-5 15 -11 27.26 19.28
5 -15 -11 3.93 20.88
5 -15 -10 28.85 22.9
-5 15 -10 3.94 18.39
5 -15 -10 38 21.46
5 -15 -9 20.44 23.22
-5 15 -9 29.2 18.25
5 -15 -9 51.19 20.78
5 -15 -8 93.89 21.35
5 -15 -8 52.53 23.33
5 -15 -7 105.25 22.04
5 -15 -7 118.33 25.07
5 -15 -6 101.25 22.5
5 -15 -6 69 23.45
5 -15 -5 53.45 20.7
5 -15 -5 79.5 23.62
5 -15 -4 45.65 20.44
5 -15 -4 -3.18 21.66
5 -15 -3 136.23 22.09
5 -15 -3 161.85 24.73
-5 -15 2 20.38 17.39
5 -15 -2 3.05 21.56
5 -15 -2 8.39 19.51
-5 -15 1 86.2 19.11
5 -15 -1 91.31 23.37
5 -15 -1 131.51 22
5 -15 0 34.42 20.01
-5 -15 0 65.78 18.45
5 -15 1 66.31 20.79
-5 -15 -1 109.15 19.96
5 -15 2 1.88 19.76
-5 -15 -2 -14.98 17.48
5 -15 3 173.97 23.22
-5 -15 -3 155.32 21.17
-5 -15 -4 5.17 18.43
5 -15 4 14.45 19.97
-5 -15 -5 31.38 18.95
5 -15 5 78.74 21.44
-5 -15 -6 99.39 20.37
5 -15 6 53 21.28
-15 5 -7 91.49 16.37
5 -15 7 64.29 21.1
-5 15 7 110.04 15.81
-5 -15 -7 95.3 21.5
-5 15 8 29.41 15.63
-5 -15 -8 106.6 21
-15 5 -8 77.5 16.48
-5 15 9 45.49 16
-5 -15 -9 51.98 20.62
-15 5 -9 27.38 15.73
-5 15 10 33.2 16.52
-5 -15 -10 8.86 19.53
-15 5 -10 -10.08 14.99
-5 15 11 8.14 16.41
-15 5 -11 15.76 16.51
-5 -15 -11 27.21 19.84
-15 5 -12 64.54 17.72
-5 -15 -12 78.8 22.13
-15 5 -13 77.75 18.82
-5 -15 -13 64.95 21.6
-15 5 -14 26.79 17.99
-5 -15 -14 24.01 22.25
-15 5 -15 29.79 18.79
-5 -15 -15 32.34 22.35
-15 5 -16 -21.1 18.56
-5 -15 -16 21.6 22.92
-15 5 -17 47.68 19.74
-5 -15 -17 52.12 23.94
-5 -15 -18 53.1 24.63
-15 5 -18 25.46 19.78
-5 -15 -19 51.66 24.86
-15 5 -19 7.87 19.67
-5 -15 -20 -4.87 24.91
-15 5 -20 22.98 20.64
6 15 20 5.47 18.95
-6 15 -20 -29.51 29.41
-15 -6 -20 31.91 22.05
-6 15 -19 -3.47 22.16
-6 15 -19 -12.49 27.76
6 15 19 -33.26 19.26
-15 -6 -19 7.21 21.82
-6 15 -18 35.23 28.47
6 15 18 -3.16 18.51
-15 -6 -18 22.26 20.85
-6 15 -18 22.74 21.73
-6 15 -17 49.28 26.97
6 15 17 12.39 18.74
-15 -6 -17 20.52 20.56
-6 15 -17 38.52 22.33
-6 15 -16 -15.63 26.14
6 15 16 25.34 18.55
-15 -6 -16 17.67 20.29
-6 15 -16 17.92 20.45
-6 15 -15 30.91 25.66
-6 15 -15 14.18 20.52
6 15 15 33.38 18.67
-15 -6 -15 8.55 19.4
-6 15 -14 9.65 19.91
-15 -6 -14 13.42 19.14
6 15 14 22 18.59
-6 15 -13 20.2 19.72
-15 -6 -13 46.69 19.17
6 -15 -13 71.37 21.36
6 15 13 35.86 18.91
6 -15 -12 39.11 24.63
6 -15 -12 70.95 21.74
-6 15 -12 10.4 18.79
6 -15 -11 25.12 24.22
6 -15 -11 49.47 21.95
-6 15 -11 37.95 19.01
6 -15 -10 141.45 27.07
6 -15 -10 153.18 24.05
-6 15 -10 123.66 20.86
6 -15 -9 61.38 24.52
6 -15 -9 95.19 22.1
-6 15 -9 43.54 18.41
6 -15 -8 9.7 21.02
6 -15 -8 21.82 23.1
6 -15 -7 149.92 23.61
6 -15 -7 112 25.28
6 -15 -6 20.98 21.01
6 -15 -6 -4.43 22.21
6 -15 -5 0.95 20.56
6 -15 -5 20.97 22.7
6 -15 -4 126.91 22.59
6 -15 -4 105.26 24.36
6 -15 -3 22.8 20.76
6 -15 -3 28.88 22.61
6 -15 -2 20.9 20.43
6 -15 -2 -8.41 21.75
6 -15 -1 44.5 20.6
6 -15 0 19.95 20.28
-6 -15 0 7.14 17.55
6 -15 1 85.05 21.17
-6 -15 -1 76.44 19.3
6 -15 2 0.96 19.78
-6 -15 -2 33.04 17.73
6 -15 3 11.72 20.2
-6 -15 -3 43.01 19.05
6 -15 4 79.95 22.72
-6 -15 -4 129.95 20.82
6 -15 5 -2.99 19.87
-6 -15 -5 12.25 18.98
6 -15 6 18.13 20.54
-6 -15 -6 5.39 18.51
6 -15 7 86.21 22.17
-15 6 -7 88.58 16.5
-6 -15 -7 76.87 20.04
-15 6 -8 19.88 15.68
-6 -15 -8 36.83 19.35
-15 6 -9 47.66 16.48
-6 -15 -9 97.74 21.03
-15 6 -10 137.84 18.93
-6 -15 -10 165.85 23.34
-15 6 -11 39.63 16.75
-6 -15 -11 57.27 21.74
-15 6 -12 39.4 17.56
-6 -15 -12 77.96 22.19
-15 6 -13 46.58 17.59
-6 -15 -13 51.75 21.85
-15 6 -14 19.66 17.55
-6 -15 -14 -3.31 21.63
-15 6 -15 23.6 18.57
-6 -15 -15 -12.4 22.03
-15 6 -16 33.08 18.66
-6 -15 -16 -20.75 22.69
-15 6 -17 10.98 19.54
-6 -15 -17 25.88 23.44
-15 6 -18 3.37 19.27
-15 6 -18 10.8 23.17
-6 -15 -18 -5.99 23.56
-15 6 -19 7.42 23.88
-15 6 -19 -11.47 20.07
-6 -15 -19 -24.42 24.63
-15 6 -20 -15.43 24.73
-7 15 -19 30.79 22.69
7 15 19 -1.08 18.82
-7 15 -19 -14.29 29.14
-7 15 -18 59.88 22.9
7 15 18 1.06 18.52
-7 15 -18 8.38 27.81
-7 15 -17 20.81 21.98
7 15 17 27.01 18.67
-7 15 -17 -6.88 27.6
-7 15 -16 42.46 21.97
7 15 16 65.82 20.2
-7 15 -16 53.94 27.47
-7 15 -15 1.12 20.96
7 15 15 43.12 19.67
-7 15 -15 5.33 26.22
7 15 14 -16.34 18.72
-7 15 -14 22 19.77
7 -15 -13 29.01 24.91
7 15 13 41.66 19.39
-7 15 -13 58.41 20.49
-7 15 -12 55.47 20.52
7 -15 -12 30.88 26.1
-7 15 -11 130.62 21.94
7 -15 -11 190.77 24.22
7 -15 -11 109.73 27.78
-7 15 -10 51.82 19.46
7 -15 -10 52.63 22.1
7 -15 -10 7.21 24.44
-7 15 -9 29.37 18.98
7 -15 -9 39.35 22.33
7 -15 -9 52.35 25.13
-7 15 -8 129.97 20.45
7 -15 -8 133.73 23.63
7 -15 -8 156.77 26.01
7 -15 -7 30.98 20.55
7 -15 -7 16.02 23.1
7 -15 -6 53 21.21
7 -15 -6 65.16 24.28
7 -15 -5 -18.35 20.73
7 -15 -5 -18 23.12
7 -15 -4 91.87 21.83
7 -15 -4 73.32 24.29
7 -15 -3 112.96 22.86
7 -15 -3 81.25 24.06
7 -15 -2 70.32 21.45
7 -15 -2 104.89 23.53
7 -15 -1 7.73 20.1
7 -15 0 142.85 22.85
7 -15 1 47.14 21.25
7 -15 2 47.63 20.84
-7 -15 -2 71.38 18.56
7 -15 3 94.16 22.34
-7 -15 -3 76.23 18.89
7 -15 4 90.96 22.6
-7 -15 -4 107.16 20.17
7 -15 5 11.23 21.42
-7 -15 -5 42.08 18.95
7 -15 6 59.65 22.33
-7 -15 -6 85 19.83
-7 -15 -7 37.85 19.55
-15 7 -7 4.74 15.21
-7 -15 -8 92.3 20.94
-15 7 -8 111.61 17.37
-7 -15 -9 23.38 20.45
-15 7 -9 9.33 15.83
-7 -15 -10 67.39 21.18
-15 7 -10 30.48 16.38
-7 -15 -11 105.89 22.62
-15 7 -11 114.85 18.51
-7 -15 -12 60.68 22
-15 7 -12 44.52 17.24
-15 7 -13 48.97 21.99
-7 -15 -13 38.06 21.74
-15 7 -13 71.85 18.67
-15 7 -14 -6.63 21.34
-7 -15 -14 22.3 22.52
-15 7 -14 5.96 17.52
-15 7 -15 3.4 21.74
-7 -15 -15 60.57 23.75
-15 7 -15 18.47 18.16
-15 7 -16 73.04 24.28
-15 7 -16 62.46 19.95
-7 -15 -16 39.77 23.72
-15 7 -17 27.63 19.91
-7 -15 -17 -8.37 23.44
-15 7 -17 8.46 23.02
-15 7 -18 45.56 20.58
-7 -15 -18 86.52 25.51
-15 7 -18 6.2 23.96
-15 7 -19 6.99 20.2
-15 7 -19 10.16 24.06
8 15 19 -17.2 18.71
-8 15 -18 31.22 23.23
8 15 18 36.02 19.26
-8 15 -18 -18.68 28.76
-8 15 -17 10.58 21.68
8 15 17 25.06 18.55
-8 15 -17 53.83 28.73
-8 15 -16 31.56 22.19
8 15 16 30.36 19.18
-8 15 -16 23.62 27.86
8 -15 -15 27.71 26.93
-8 15 -15 19.61 20.92
8 15 15 13.53 18.56
-8 15 -15 1.38 26.9
8 -15 -14 24.63 26.27
8 15 14 8.31 18.9
-8 15 -14 77.39 21.43
-8 15 -13 20.92 20.19
8 -15 -13 7.65 26.49
-8 15 -12 7.64 19.3
8 -15 -12 6.28 24.94
-8 15 -11 88.35 20.56
8 -15 -11 76.86 26.04
-8 15 -10 3.13 18.97
8 -15 -10 3.99 21.58
8 -15 -10 27.03 25.19
-8 15 -9 35.19 18.71
8 -15 -9 10.89 22.49
8 -15 -9 22.79 24.88
-8 15 -8 29.26 18.53
8 -15 -8 58.12 22.82
8 -15 -8 63.88 24.67
-8 15 -7 16.84 17.72
8 -15 -7 12.98 23.17
8 -15 -7 2.96 21.73
8 -15 -6 54.74 23.93
8 -15 -6 -1.97 21.03
8 -15 -5 35.62 23.84
8 -15 -5 17.71 20.91
8 -15 -4 47.25 23.56
8 -15 -4 58.83 21.57
8 -15 -3 56.9 23.61
8 -15 -3 17.67 21.14
8 -15 -2 41.37 21.36
8 -15 -1 15.86 20.52
8 -15 0 162.04 24.46
8 -15 1 78.81 22.22
8 -15 2 28.5 20.82
8 -15 3 -16.41 20.65
8 -15 4 84.94 22.23
-8 -15 -4 47.64 19.13
8 -15 5 37.53 21.79
-8 -15 -5 18.37 19.02
-15 8 -6 24.32 15.24
-8 -15 -6 -14.36 18.92
-8 -15 -7 14.87 19.3
-15 8 -7 3.23 14.79
-8 -15 -8 53.41 20.35
-15 8 -8 48.65 16.38
-8 -15 -9 10.84 19.63
-15 8 -9 40.08 16.46
-15 8 -10 -10.8 16.09
-8 -15 -10 -7.13 19.97
-15 8 -10 1.02 19.9
-15 8 -11 67.59 17.88
-8 -15 -11 60.75 22.06
-15 8 -11 29.1 20.55
-15 8 -12 4.74 16.65
-8 -15 -12 32.14 21.33
-15 8 -12 3.23 20.83
-15 8 -13 -4.88 17.17
-8 -15 -13 -12.12 21.42
-15 8 -13 -14.38 21.41
-15 8 -14 4.01 17.25
-8 -15 -14 53.14 23.26
-15 8 -14 41.26 23.25
-15 8 -15 14.5 18.54
-8 -15 -15 41.76 23.47
-15 8 -15 13 22.82
-15 8 -16 19.25 19.13
-8 -15 -16 22.56 23.43
-15 8 -16 -13.31 23.21
-15 8 -17 17.6 19.6
-15 8 -17 33.97 24.38
-8 -15 -17 20.61 23.77
-8 -15 -18 2.47 24.03
-15 8 -18 -1.28 23.73
-15 8 -18 9.16 20.16
-15 8 -19 34.12 25.42
9 15 18 -1.06 18.23
-9 15 -17 -9.62 22.41
9 -15 -17 20.53 29.2
9 15 17 47.25 19.16
-9 15 -17 -1.45 28.34
-9 15 -16 3.56 21.58
9 -15 -16 -17.52 27.88
9 15 16 1.06 19.26
-9 15 -16 8.56 27.69
-9 15 -15 4.7 21.54
9 15 15 -4.22 19.09
-9 15 -15 2.84 28.26
9 -15 -14 82.6 28.78
9 15 14 46.49 19.69
-9 15 -14 -2.3 20.19
9 -15 -13 55.48 27.81
-9 15 -13 11.2 19.95
9 -15 -12 -28.12 26.58
-9 15 -12 20.86 19.95
9 -15 -11 24.02 25.94
-9 15 -11 40.19 20.21
9 -15 -10 77.8 26.33
-9 15 -10 41.34 19.96
9 -15 -9 73.14 26.21
-9 15 -9 52.04 19.43
9 -15 -8 3.65 24.34
9 -15 -8 45.31 22.31
-9 15 -8 7.22 18.28
9 -15 -7 42.03 25.04
9 -15 -7 54.2 22.79
-9 15 -7 43.08 18.34
9 -15 -6 97.15 25.45
9 -15 -6 54.01 23.07
-9 15 -6 63.05 18.97
9 -15 -5 14.97 21.66
9 -15 -5 32.6 23.63
9 -15 -4 -20.99 21.3
9 -15 -4 39.05 23.94
9 -15 -3 28.09 21.5
9 -15 -2 39.4 21.49
9 -15 -1 72.32 22.63
9 -15 0 31.91 21.72
9 -15 1 73.42 22.45
9 -15 2 38.58 22.21
9 -15 3 22.09 21.72
9 -15 4 8.46 21.75
-15 9 -6 44.27 15.27
-9 -15 -6 46.03 19.44
-15 9 -7 10.84 15.4
-9 -15 -7 7.44 18.68
-15 9 -8 -4.31 15.62
-9 -15 -8 -10.56 19.76
-9 -15 -9 58.71 20.92
-15 9 -9 26.68 16.57
-9 -15 -10 14.39 20.53
-15 9 -10 59.04 17.74
-15 9 -11 4.4 21.23
-9 -15 -11 30.61 21.52
-15 9 -11 29.55 17.07
-15 9 -12 9 21.95
-9 -15 -12 31.45 22.08
-15 9 -12 11.75 17.4
-15 9 -13 26.67 22.52
-9 -15 -13 37.89 22.15
-15 9 -13 20.99 17.86
-15 9 -14 43.98 23.42
-9 -15 -14 17.2 23.1
-15 9 -14 31.76 18.33
-15 9 -15 9.83 23.81
-9 -15 -15 21.16 22.96
-15 9 -15 13.65 18.29
-15 9 -16 10.05 24.29
-9 -15 -16 -13.24 23.08
-15 9 -16 -11.9 19.12
-15 9 -17 30.93 24.93
-9 -15 -17 61.34 24.47
-15 9 -17 24.5 19.62
-15 9 -18 -6.65 25.61
10 -15 -17 -15.11 29.84
-10 15 -16 -21.55 21.46
10 -15 -16 -9.51 28.55
10 15 16 -11.71 18.6
-10 15 -16 16.08 28.47
-10 15 -15 2.37 21.17
10 -15 -15 25.45 28.21
10 15 15 41.73 19.68
-10 15 -15 -20.34 27.8
10 -15 -14 72.83 28.93
10 15 14 61.91 20.05
-10 15 -14 42.21 22.17
10 -15 -13 32.79 27.91
-10 15 -13 5.7 20.08
10 -15 -12 -24.59 27.3
-10 15 -12 34.62 19.83
10 -15 -11 22.83 26.91
-10 15 -11 7.67 19.78
10 -15 -10 11.31 25.64
-10 15 -10 28.06 19.42
10 -15 -9 23.74 26.07
-10 15 -9 -5.27 18.44
10 -15 -8 53.08 26.07
-10 15 -8 34.2 18.95
10 -15 -7 1.22 24.32
-10 15 -7 18.43 18.2
10 -15 -6 -9.6 24.08
10 -15 -6 26.45 22.58
-10 15 -6 16.9 18.01
10 -15 -5 3.53 23.97
10 -15 -5 31.63 22.59
-10 15 -5 25.4 17.39
10 -15 -4 -4.69 23.62
10 -15 -4 52.27 23.15
10 -15 -3 44.31 22.25
10 -15 -2 1.04 21.69
10 -15 -1 24.07 22.28
10 -15 0 98.77 23.99
10 -15 1 66.85 23.6
10 -15 2 30.93 22.58
10 -15 3 13.96 21.47
-15 10 -6 16.87 15.63
-15 10 -7 8.64 15.52
-15 10 -8 64.02 16.89
-15 10 -9 11.04 16.12
-10 -15 -9 30.11 20.52
-10 -15 -10 39.35 21.39
-15 10 -10 -5.67 16.82
-10 -15 -11 -10.64 21.39
-15 10 -11 -9.76 17.36
-15 10 -12 42.45 23.19
-10 -15 -12 10.95 22.21
-15 10 -12 -2.01 17.57
-15 10 -13 4.84 23.43
-10 -15 -13 -32.7 22.67
-15 10 -13 20.63 18.45
-15 10 -14 27.31 23.51
-10 -15 -14 13.91 22.75
-15 10 -14 18.9 18.68
-15 10 -15 -34.37 25.21
-10 -15 -15 7.11 23.11
-15 10 -15 -9.66 18.18
-15 10 -16 -9.2 24.34
-10 -15 -16 23.09 23.88
-15 10 -16 -29.69 19.61
-15 10 -17 25.32 25.07
11 -15 -16 20.49 29.27
-11 15 -15 -8.88 28.99
11 -15 -15 61.03 29.4
-11 15 -15 16.7 21.6
11 15 15 -17.21 19.45
11 -15 -14 30.85 29.82
-11 15 -14 59.07 21.44
11 15 14 53.79 20.36
11 -15 -13 -26.27 27.51
-11 15 -13 6.98 20.58
11 -15 -12 51.9 28.28
-11 15 -12 54.29 21.43
11 -15 -11 30.99 27.96
-11 15 -11 19.95 19.67
11 -15 -10 51.26 27.33
-11 15 -10 15.22 19.11
11 -15 -9 -24.01 26.43
-11 15 -9 -7.48 19.15
11 -15 -8 11.23 26.09
-11 15 -8 27.12 18.63
11 -15 -7 -20.91 25.36
-11 15 -7 25.66 18.97
11 -15 -6 59.09 25.81
-11 15 -6 23.28 18.18
11 -15 -5 24.02 25.01
-11 15 -5 16.75 17.47
11 -15 -4 56.85 24.18
-11 15 -4 68.54 18.2
11 -15 -3 -16.99 22.9
11 -15 -2 2.13 22.89
11 -15 -1 -4.28 22.55
11 -15 0 12.95 23.16
11 -15 1 15.16 23.05
-15 11 -5 13.51 15.28
-15 11 -6 31.58 16.42
-15 11 -7 18.05 16.39
-15 11 -8 73.74 17.43
-15 11 -9 9.47 16.61
-15 11 -10 14.65 17.81
-15 11 -11 -1 17.5
-11 -15 -11 4.28 21.39
-15 11 -12 58.64 24.54
-15 11 -12 11.34 18.54
-11 -15 -12 82.81 23.53
-15 11 -13 35.38 24.46
-15 11 -13 34.98 18.61
-11 -15 -13 23.89 22.9
-15 11 -14 50.54 25.05
-15 11 -14 67.22 19.85
-11 -15 -14 64.37 23.68
-15 11 -15 30.39 25.18
-15 11 -15 4.4 19.1
-11 -15 -15 16.77 23.56
-11 -15 -16 34.14 24.24
-15 11 -16 40.69 26.11
12 -15 -15 17.63 30.41
12 -15 -14 -17.38 28.78
-12 15 -14 -24.83 20.89
12 -15 -13 -2.66 28.66
-12 15 -13 -23.49 20.77
12 -15 -12 51.55 29.01
-12 15 -12 65.71 21.72
12 -15 -11 15.7 28.43
-12 15 -11 3.35 19.46
12 -15 -10 77.37 29.26
-12 15 -10 32.88 19.96
12 -15 -9 -7.65 27.46
-12 15 -9 20.43 19.09
12 -15 -8 3.76 26.59
-12 15 -8 -9.51 18.99
12 -15 -7 -1.23 25.94
-12 15 -7 41.24 18.58
12 -15 -6 8.59 26.5
-12 15 -6 -24.27 18.24
-12 15 -5 -12 18.15
-12 15 -4 48.7 18.2
-12 15 -3 -20.91 17.17
12 -15 -2 1.09 23.84
-12 15 -2 43.05 17.17
12 -15 -1 42.65 23.9
12 -15 0 21.99 23.46
-15 12 -5 10.53 15.4
-15 12 -6 24.44 16.65
-15 12 -7 13.13 16.84
-15 12 -8 11.55 16.89
-15 12 -9 -4.88 16.87
-15 12 -10 1.01 17.31
-15 12 -11 -15.53 18.22
-15 12 -12 40.15 18.83
-15 12 -13 -5.3 24.42
-15 12 -13 -5.44 18.46
-15 12 -14 26.76 19.39
-12 -15 -14 1.18 23.24
-15 12 -14 -1.35 25.88
-12 -15 -15 29.98 24.13
13 -15 -13 -56.44 29
13 -15 -12 -23.88 28.06
-13 15 -12 -9.28 19.81
13 -15 -11 3.93 27.97
-13 15 -11 3.42 19.49
13 -15 -10 1.3 27.83
-13 15 -10 17.68 19.24
13 -15 -9 10.17 27.86
-13 15 -9 3.24 19.04
13 -15 -8 42.79 28.05
-13 15 -8 8.48 18.55
-13 15 -7 43.8 18.83
-13 15 -6 23.36 17.8
-13 15 -5 22.91 17.68
-13 15 -4 -5.88 17.39
-13 15 -3 47.12 17.88
-13 15 -2 39.31 17.42
-13 15 -1 29.37 16.58
-15 13 -5 32.98 16.9
-15 13 -6 32.93 17.51
-15 13 -7 10.67 16.99
-15 13 -8 18.01 17.79
-15 13 -9 16.33 17.76
-15 13 -10 61.16 19.51
-15 13 -11 38.44 18.94
-15 13 -12 -15.25 18.67
-15 13 -13 45.74 27.38
-15 13 -13 3.34 19.17
-14 15 -11 28.56 20.02
-14 15 -10 21.3 19.46
14 -15 -9 20.5 26.02
-14 15 -9 6.52 18.82
-14 15 -8 -3.19 18.4
-14 15 -7 -9.36 18.52
-14 15 -6 19.52 18.04
-14 15 -5 9.02 17.17
-14 15 -4 33.22 17.53
-14 15 -3 24.96 17.22
-15 14 -5 24.85 17.45
-15 14 -6 -10.78 17.41
-15 14 -7 -17.07 17.91
-15 14 -8 4.15 17.77
-15 14 -9 -1.06 18.44
-15 14 -10 10.79 18.75
-15 14 -11 -35.04 19.2
-15 15 -5 -3 17.48
-15 15 -6 -9.18 17.08
-15 15 -7 19.82 18.53
-15 15 -8 3.2 18.47
-15 15 -9 8.8 18.85
0 -16 0 -21.15 19.7
0 -16 1 124.99 21.85
0 -16 -1 129.03 21.73
0 -16 -1 101.77 21.03
0 -16 -2 45.93 19.75
0 -16 2 57.53 20.07
0 -16 -2 39.65 20.21
0 -16 -3 -0.94 19.78
0 -16 3 23.74 19.03
0 -16 -3 31.11 20.76
0 -16 -4 99.84 22.18
0 -16 4 116.47 21.61
0 -16 -4 105.84 21.83
0 -16 -5 15.35 19.97
0 -16 5 -0.91 18.49
0 -16 -5 10.71 20.55
0 -16 -6 3.9 20.43
0 -16 6 16.52 18.97
0 -16 -6 27.9 21.02
0 -16 -7 184.66 23.68
0 16 7 113.59 19.02
0 -16 7 159.36 22
0 -16 -7 118.83 23.6
0 -16 -8 46.83 21.73
0 16 8 32.28 17.19
0 -16 8 -0.93 19.56
0 -16 -8 17.67 22.01
0 -16 -9 84.75 22.12
0 -16 9 46.98 20.67
0 -16 10 -1.88 19.29
0 16 10 30.08 16.98
0 16 11 12.18 16.88
0 -16 -11 16.56 20.83
0 16 12 -7.18 17.23
-16 0 -12 3.71 17.06
0 -16 -12 -2.07 20.7
0 16 13 21.27 17.89
-16 0 -13 36.8 18.46
0 -16 -13 28.48 21.67
0 16 14 10.5 18.13
-16 0 -14 7.05 18.24
0 -16 -14 1.07 21.83
0 16 15 58.93 19.47
-16 0 -15 55.34 20.24
0 -16 -15 86.23 23.72
0 16 16 7.09 18.75
-16 0 -16 13.99 19.63
0 -16 -16 39.95 23.53
0 16 17 -18.88 19.37
-16 0 -17 4.41 19.98
0 -16 -17 33.74 23.88
-16 0 -18 46.21 20.1
0 -16 -18 47.76 24.26
-16 0 -19 9.22 20.58
0 -16 -19 32.13 24.5
-16 0 -20 7.04 20.64
0 -16 -20 6.94 25.03
-16 -1 -20 49.36 21.47
1 -16 -20 18.39 24.51
1 16 19 -10.06 19.9
-16 -1 -19 -31.02 20.43
1 -16 -19 -34.19 24.43
1 16 18 -23.77 19.71
-16 -1 -18 28.1 20.32
1 -16 -18 15.75 24.11
1 16 17 68 20.38
-16 -1 -17 28.48 19.92
1 -16 -17 17.76 23.19
1 16 16 3.05 18.48
-16 -1 -16 11.77 19.38
1 -16 -16 24.1 23.04
1 16 15 99.05 20.05
-16 -1 -15 73.69 20.12
1 -16 -15 89.47 23.45
1 16 14 63.47 19.21
-16 -1 -14 19.1 18.83
1 -16 -14 74.78 23.72
1 16 13 9.35 17.32
1 -16 -13 29.73 21.46
-16 -1 -13 5.84 17.78
1 -16 -12 7.35 21.29
-1 16 -12 17.16 18.54
1 16 12 7.27 16.98
-1 16 -11 24.68 18.65
1 16 11 9.9 17.63
1 -16 -11 22.81 21.52
1 16 10 70.64 18.59
1 -16 -10 76.6 21.99
1 16 9 50.48 17.86
1 -16 -9 20.22 21.15
1 -16 -9 67.77 23.72
1 -16 -8 2 20.72
1 16 8 5.13 17.15
-1 -16 8 1.81 19.06
1 -16 -8 -4.27 21.42
1 -16 -7 29.66 20.69
-1 -16 7 53.95 19.33
1 -16 -7 56.4 22.41
1 -16 -6 120.97 22.89
-1 -16 6 123.16 21.67
1 -16 -6 122.83 23.64
1 -16 -5 15.45 19.98
-1 -16 5 19.59 18.76
1 -16 -5 44.06 21.87
1 -16 -4 -23.96 19.7
-1 -16 4 4.46 18.53
1 -16 -4 35.66 21.62
1 -16 -3 22.92 20.16
-1 -16 3 3.59 19.03
1 -16 -3 28.32 21.23
-1 -16 2 130.61 20.83
1 -16 -2 122.07 22.31
1 -16 -2 112.12 22.62
-1 -16 1 34.21 19.2
1 -16 -1 66.55 20.6
1 -16 -1 98.84 21.11
1 -16 0 0.93 19.76
-1 -16 0 4.54 18.79
-1 -16 -1 91.38 21.12
1 -16 1 62.37 20.57
-1 -16 -1 78.64 20.67
-1 -16 -2 90.74 20.72
1 -16 2 101.67 21.54
-1 -16 -2 82.28 20.42
-1 -16 -3 13.06 19.3
1 -16 3 17.63 19.51
-1 -16 -3 8.15 19.79
-1 -16 -4 22.63 20.59
1 -16 4 16.73 19.36
-1 -16 -4 9.15 19.99
-1 -16 -5 -3.83 19.69
1 -16 5 45.81 19.87
-1 -16 -5 0.94 19.64
-1 -16 -6 115.76 21.96
-1 16 6 120.45 18.61
1 -16 6 113.23 21.92
-1 -16 -6 152.69 22.34
-1 -16 -7 47.01 20.32
-1 16 7 97.18 17.94
1 -16 7 62.91 20.79
-1 -16 -7 80.85 22.24
-1 -16 -8 -17.91 20.2
1 -16 8 10.52 20.2
-1 -16 -8 -8.09 21.51
-1 16 8 19.12 16.48
1 -16 9 31.85 20.33
-1 -16 -9 39.28 21.04
-1 16 9 44.83 16.7
-1 -16 -10 75.99 21.48
-1 16 10 23.25 16.69
-1 -16 -11 20.55 20.84
-1 16 11 -12.01 16.72
-1 -16 -12 15.72 20.41
-16 1 -12 -6.44 17.01
-1 16 12 -6.21 16.66
-1 -16 -13 46.95 21.37
-16 1 -13 27.63 17.84
-1 16 13 -10.99 17.17
-1 -16 -14 79.13 22.6
-16 1 -14 62.2 18.98
-1 16 14 60.53 18.97
-1 -16 -15 39.47 23.61
-16 1 -15 53.23 19.9
-1 16 15 82.1 19.94
-1 -16 -16 24.47 23.07
-16 1 -16 5.3 18.57
-1 16 16 12.18 19
-1 -16 -17 58.68 24.09
-16 1 -17 13.17 20.05
-1 16 17 29.54 19.77
-1 -16 -18 35.53 24.34
-16 1 -18 4.54 20.3
-1 -16 -19 40.67 24.61
-16 1 -19 -19.75 20.86
-1 -16 -20 74.12 25.52
-16 1 -20 24.8 20.89
-16 -2 -20 8.25 20.53
2 -16 -19 -26.91 23.16
-16 -2 -19 -13.86 19.83
2 16 19 34.47 20.03
2 -16 -18 64.38 24.43
-16 -2 -18 49.62 20.73
2 16 18 4.31 19.15
2 -16 -17 9.92 22.92
-16 -2 -17 -18.68 19.23
2 16 17 -5.25 18.81
2 -16 -16 1.09 22.83
-16 -2 -16 26.67 19.49
2 16 16 14.33 18.97
2 -16 -15 36.79 22.99
-16 -2 -15 22.75 18.73
2 16 15 26.93 18.58
2 -16 -14 26.84 22.43
2 16 14 4.86 18.04
-16 -2 -14 36.03 19.21
-2 16 -13 29.94 19.94
2 16 13 18.94 17.95
2 -16 -13 29.73 22.23
-16 -2 -13 6.77 17.65
-2 16 -12 2.97 18.59
2 -16 -12 28.28 21.33
2 16 12 -8.45 17.56
-2 16 -11 57.77 19.64
2 -16 -11 51.76 22.25
2 16 11 48.94 18.36
2 -16 -10 -6.17 20.53
2 16 10 34.65 17.75
2 -16 -9 39.09 22.66
2 -16 -9 -5.08 20.47
2 16 9 35 18.08
2 -16 -8 14.01 20.34
2 -16 -8 33.96 21.46
2 -16 -7 48.54 20.62
2 -16 -7 74.21 22.74
2 -16 -6 20.63 20.38
-2 -16 6 8.69 18.84
2 -16 -6 41.36 22.71
2 -16 -5 92.68 22.07
-2 -16 5 113.82 19.94
2 -16 -5 61.01 23.02
2 -16 -4 -14.55 20.51
-2 -16 4 12.26 19.22
2 -16 -4 27.73 21.42
2 -16 -3 76 21.05
-2 -16 3 84.13 20.27
2 -16 -3 76.69 22.24
-2 -16 2 47.41 18.8
2 -16 -2 46.74 20.29
2 -16 -2 67.41 22.57
2 -16 -1 96.49 21.62
-2 -16 1 78.23 20.09
2 -16 -1 99 22.22
-2 -16 0 36.11 19.53
2 -16 0 52.99 20.74
-2 -16 -1 68.9 19.81
2 -16 1 58.81 21.13
-2 -16 -2 55.85 19.91
2 -16 2 98.55 21.79
-2 -16 -3 84.25 20.36
2 -16 3 59.6 20.62
-2 -16 -4 -16.01 20.03
2 -16 4 7.61 19.6
-2 -16 -5 116.65 21.37
2 -16 5 84.36 21.58
-2 16 5 113.74 17.69
-2 -16 -6 35.68 20.54
-2 -16 -6 18.54 19.89
2 -16 6 24.22 19.83
-2 16 6 19.85 16.22
-2 -16 -7 59.59 20.56
-2 16 7 55.12 16.61
-2 -16 -7 52.28 21.26
2 -16 7 -1.95 20.02
-2 16 8 31.52 16.09
2 -16 8 25.62 20.3
-2 -16 -8 15.85 20.24
-2 -16 -9 17.91 19.96
-2 16 9 37.93 16.79
2 -16 9 0.99 19.99
-2 -16 -10 40.67 20.56
-2 16 10 57.27 17.06
-2 -16 -11 27.99 21.13
-16 2 -11 62.2 18.01
-2 16 11 61.06 17.84
-2 -16 -12 20.06 21.02
-16 2 -12 34.03 17.34
-2 16 12 14.05 17.03
-2 -16 -13 24.61 21.42
-16 2 -13 29.58 17.98
-2 16 13 47.29 18.4
-2 -16 -14 20.7 21.48
-16 2 -14 -9.84 17.88
-2 16 14 29.2 18.45
-2 -16 -15 78.6 23.97
-16 2 -15 32.58 18.93
-2 16 15 51.06 19.62
-2 -16 -16 6.77 22.49
-16 2 -16 19.92 18.9
-2 16 16 14.28 18.76
-2 -16 -17 35.6 22.9
-16 2 -17 -1.08 19.14
-2 -16 -18 61.79 25.31
-16 2 -18 28.94 20.53
-2 -16 -19 61.41 25.47
-16 2 -19 14.92 20.91
-16 -3 -19 15.12 20.59
3 16 19 52.09 20.06
-16 -3 -18 38.44 21.13
3 -16 -18 -4.46 21.93
3 16 18 59.43 19.94
3 16 17 18.99 19.17
-16 -3 -17 47.31 19.84
3 -16 -17 5.52 22.77
3 16 16 49.5 19.5
-16 -3 -16 40.62 19.75
3 -16 -16 34.97 23.59
3 16 15 32.23 18.66
-3 16 -15 30.71 25.2
3 -16 -15 22.74 22.99
-16 -3 -15 13.5 18.95
3 16 14 43.23 18.99
-3 16 -14 67.73 20.95
3 -16 -14 62.17 23.54
-16 -3 -14 56.34 19.53
-3 16 -13 1.03 19.36
3 -16 -13 15.87 21.99
3 16 13 34.18 18.84
-3 16 -12 4.11 19.49
3 -16 -12 31.6 21.6
3 16 12 44.15 18.49
-3 16 -11 54.41 20.31
3 -16 -11 112.57 23.56
3 16 11 121.87 20.47
3 16 10 67.59 19.05
3 -16 -10 62.66 21.73
3 -16 -10 50.17 24.26
3 -16 -9 3.04 20.49
3 -16 -9 -8.02 23.22
3 -16 -8 20.1 20.94
3 -16 -8 25.85 23.13
3 -16 -7 -7.97 20.34
3 -16 -7 31.14 22.64
3 -16 -6 53.47 21.17
3 -16 -6 69.26 23.37
3 -16 -5 103.85 22.88
3 -16 -5 96.18 24.08
-3 -16 5 58.58 19.32
3 -16 -4 6.84 20.52
3 -16 -4 12.73 22.02
-3 -16 4 -11.13 18.38
3 -16 -3 92.12 21.35
-3 -16 3 108.64 19.74
3 -16 -3 55.23 22.24
3 -16 -2 95.25 22.24
-3 -16 2 64.97 19.79
3 -16 -2 98.04 22.97
-3 -16 1 41.25 19.49
3 -16 -1 31.27 22.33
3 -16 -1 18.23 20.01
-3 -16 0 5.34 18.53
3 -16 0 15.44 19.87
-3 -16 -1 31.4 19.21
3 -16 1 0.96 20.02
-3 -16 -2 81.61 20.95
3 -16 2 85.63 21.9
-3 -16 -3 97.64 21.03
3 -16 3 85.95 21.28
-3 -16 -4 22.48 19.91
3 -16 4 49.62 20.62
-3 16 5 113.96 16.7
-3 -16 -5 86.09 21.55
3 -16 5 105.24 22.09
-3 16 6 68.47 16.52
-3 -16 -6 88.64 20.87
3 -16 6 66.65 21.41
-3 16 7 47.67 15.84
-3 -16 -7 43.87 20.57
3 -16 7 46.03 21.16
-3 -16 -8 39.23 20.26
-3 16 8 15.02 15.87
3 -16 8 29.28 20.76
-3 -16 -9 52.14 20.75
-3 16 9 10.13 15.54
3 -16 9 10.15 20.56
-3 16 10 60.02 17.37
-3 -16 -10 71.66 21.4
-3 16 11 72.29 18
-3 -16 -11 120.79 23.05
-16 3 -11 70.58 18.14
-3 16 12 19.2 17.46
-3 -16 -12 -3.17 20.39
-16 3 -12 9.35 17.06
-3 16 13 41.7 18.4
-3 -16 -13 79.83 23.22
-16 3 -13 68.39 18.89
-3 16 14 54.93 18.91
-3 -16 -14 90.36 23.83
-16 3 -14 31.66 18.17
-3 16 15 -18.79 19.33
-3 -16 -15 -6.74 22.54
-16 3 -15 4.07 17.79
-3 -16 -16 2.29 23.1
-16 3 -16 12.61 18.8
-3 -16 -17 27.87 23.8
-16 3 -17 17.26 19.61
-3 -16 -18 32.97 24.02
-16 3 -18 17.73 20.07
-3 -16 -19 109.69 25.72
-16 3 -19 57.93 21.34
4 16 19 -7.75 19.2
-16 -4 -19 48.64 21.86
4 16 18 17.38 19.16
-16 -4 -18 1.16 20.63
-16 -4 -17 30.41 20.63
4 16 17 46.73 19.77
-4 16 -17 77.48 28.2
4 -16 -16 57.73 22.73
-4 16 -16 11.18 26.29
-16 -4 -16 -6.55 19.72
4 16 16 71.72 19.9
-4 16 -16 13.1 20.93
4 -16 -15 -1.08 22.6
-4 16 -15 34.43 25.6
-16 -4 -15 11.63 18.84
-4 16 -15 37.78 21.21
4 16 15 5.08 17.86
-4 16 -14 44.11 20.62
4 -16 -14 34.34 23.34
4 16 14 34.28 19.47
-4 16 -13 76.21 21.31
4 -16 -13 118.03 24.4
4 16 13 74.74 20.37
-4 16 -12 10.53 19.75
4 -16 -12 19.95 21.88
4 16 12 60.25 19.52
-4 16 -11 68.49 20.71
4 -16 -11 106.71 26.2
4 -16 -11 69.54 23.18
4 16 11 54.82 19.23
4 -16 -10 78.54 25.24
4 -16 -10 88.34 23.12
-4 16 -10 50.24 20.07
4 -16 -9 85.36 24.98
4 -16 -9 93.87 22.96
4 -16 -8 -5.77 23.15
4 -16 -8 61.72 21.98
4 -16 -7 63.63 23.69
4 -16 -7 24.13 21.25
4 -16 -6 61.1 23.8
4 -16 -6 118.37 23.08
4 -16 -5 120.62 24.65
4 -16 -5 104.05 22.36
4 -16 -4 56.67 23.53
4 -16 -4 24.61 20.82
4 -16 -3 124.55 25.28
-4 -16 3 142.63 21.28
4 -16 -3 196.53 23.88
4 -16 -2 94.9 22.01
4 -16 -2 54.33 23.51
-4 -16 2 90.34 19.7
4 -16 -1 4.91 20.19
-4 -16 1 30.41 18.99
4 -16 0 95.13 22.34
-4 -16 0 112.92 20.59
4 -16 1 38.14 20.93
-4 -16 -1 3.55 19.07
4 -16 2 66.7 21.45
-4 -16 -2 77.36 20.36
4 -16 3 129.42 22.31
-4 -16 -3 164.13 22.6
4 -16 4 30.96 20.61
-4 -16 -4 36.19 20.06
4 -16 5 94.04 22.38
-4 -16 -5 120.77 21.39
4 -16 6 99.53 22.32
-4 -16 -6 62.16 20.83
-4 16 7 20.59 15.52
4 -16 7 45.23 21.46
-4 -16 -7 38.57 20.11
4 -16 8 13.41 20.55
-4 16 8 25.9 15.66
-4 -16 -8 25.67 20.77
-4 16 9 70.02 16.98
-4 -16 -9 80.76 21.88
-4 16 10 56.95 17.48
-4 -16 -10 18.45 20.81
-16 4 -10 41.33 17.23
-4 16 11 76.85 18.06
-4 -16 -11 42.82 21.14
-16 4 -11 62.34 17.98
-4 16 12 4.37 17.3
-4 -16 -12 19.25 21.14
-16 4 -12 2.85 17.34
-4 16 13 101.58 19.61
-4 -16 -13 74.34 23.11
-16 4 -13 83.21 19.21
-4 -16 -14 7.82 22.75
-16 4 -14 47.4 18.8
-4 -16 -15 20.38 23.4
-16 4 -15 -13.44 18.63
-4 -16 -16 8.08 23.37
-16 4 -16 41.25 19.55
-4 -16 -17 37.61 23.77
-16 4 -17 24.86 19.33
-4 -16 -18 -27.5 23.51
-16 4 -18 -24.45 19.89
-4 -16 -19 74.04 25.61
-16 4 -19 1.14 19.97
-5 16 -19 8.21 28.31
-16 -5 -19 -6.01 20.99
-5 16 -18 41.48 29.11
5 16 18 39.31 19.9
-16 -5 -18 36.33 21.52
-5 16 -17 7.91 27.58
5 16 17 8.56 19.07
-5 16 -17 4.6 22.69
-16 -5 -17 22.82 20.41
-5 16 -16 81.38 27.91
-16 -5 -16 22.16 20.34
-5 16 -16 42.83 22.03
5 16 16 6.29 18.82
-5 16 -15 18.92 20.87
5 -16 -15 21.63 21.8
5 16 15 6.17 18.41
-5 16 -14 56.31 22.09
5 -16 -14 107.03 23.88
5 16 14 82.54 20.24
-5 16 -13 20.68 20.75
5 -16 -13 19.08 22.96
5 16 13 14.27 18.62
-5 16 -12 1.07 19.6
5 -16 -12 18.84 24.88
5 -16 -12 7.36 22.82
5 16 12 32.49 19.16
5 -16 -11 54.29 25.38
5 -16 -11 44.84 22.83
-5 16 -11 77.12 21.18
5 -16 -10 118.88 26.06
5 -16 -10 125.03 24.24
-5 16 -10 98.36 21.37
5 -16 -9 13.14 24.33
5 -16 -9 28.72 21.93
-5 16 -9 9.35 19.47
5 -16 -8 42.05 21.78
5 -16 -8 30.77 24.18
5 -16 -7 21.31 21.19
5 -16 -7 -5.77 22.47
5 -16 -6 109.62 23.03
5 -16 -6 71.07 24.02
5 -16 -5 -8.99 20.52
5 -16 -5 13.63 23.1
5 -16 -4 36.75 20.92
5 -16 -4 -10.06 22.3
5 -16 -3 32.76 21.05
5 -16 -3 30.74 22.86
5 -16 -2 58.79 21.7
5 -16 -2 41.17 23.14
5 -16 -1 33.84 20.96
-5 -16 1 47 19.05
5 -16 0 5.96 20.1
-5 -16 0 -12.94 17.77
5 -16 1 35.87 21.07
-5 -16 -1 2.63 18.2
5 -16 2 69.23 21.24
-5 -16 -2 78.73 19.84
5 -16 3 -17.2 19.81
-5 -16 -3 18.21 18.98
5 -16 4 32.77 21.06
-5 -16 -4 29.52 19.53
5 -16 5 11.34 20.86
-5 -16 -5 4.69 19.58
5 -16 6 54.15 21.91
-5 -16 -6 49.45 20.4
5 -16 7 2.1 21
-5 -16 -7 3.87 19.44
-5 -16 -8 35.72 20.1
-5 -16 -9 4.04 20.13
-5 16 9 7.64 15.71
-16 5 -10 139.7 18.97
-5 -16 -10 105.11 22.58
-5 16 10 138.77 18.87
-16 5 -11 75.18 18.52
-5 -16 -11 83.57 22.24
-5 16 11 40.34 17.53
-16 5 -12 8.53 17.15
-5 -16 -12 9.73 21.46
-5 16 12 20.26 17.91
-5 -16 -13 17.65 21.8
-16 5 -13 21.75 17.8
-5 -16 -14 88.76 23.95
-16 5 -14 71.48 19.44
-5 -16 -15 19.52 22.87
-16 5 -15 -10.48 18.61
-5 -16 -16 22.29 23.43
-16 5 -16 37.66 19.7
-5 -16 -17 -7.17 24.08
-16 5 -17 5.49 19.59
-5 -16 -18 47.47 24.68
-16 5 -18 22.4 20.56
-16 -6 -18 -15.49 21.36
6 16 18 3.28 19.2
-6 16 -18 18.01 28.38
-6 16 -18 -23.55 22.17
-16 -6 -17 15.1 20.49
6 16 17 30.12 19.27
-6 16 -17 15 28.24
-6 16 -17 -11.8 22.36
-16 -6 -16 44 20.88
-6 16 -16 -3.49 22.16
6 16 16 20.08 18.93
-6 16 -16 8.04 27.29
6 16 15 39.13 19.62
-6 16 -15 67.31 22.44
-6 16 -14 66.37 21.93
6 -16 -14 13.2 26.49
6 16 14 71.11 20.2
-6 16 -13 30.17 20.7
6 -16 -13 -25.91 26.5
6 -16 -13 23.39 21.54
6 16 13 10.44 19.31
-6 16 -12 28.54 20.63
6 -16 -12 33.14 26.08
6 -16 -12 18.99 22.25
6 16 12 3.1 19.46
6 -16 -11 -5.23 21.93
-6 16 -11 -1.09 19.41
6 -16 -10 45.79 25.26
6 -16 -10 16.77 22.68
-6 16 -10 3.22 19.63
6 -16 -9 47.84 25.35
6 -16 -9 33.18 22.59
-6 16 -9 14.77 19.43
6 -16 -8 64.66 23.06
6 -16 -8 31.11 23.83
6 -16 -7 22.45 21.91
6 -16 -7 52.14 24.33
6 -16 -6 57.73 21.68
6 -16 -6 64.78 24.41
6 -16 -5 11.09 20.61
6 -16 -5 15.08 23.29
6 -16 -4 2.02 21.08
6 -16 -4 -10.3 22.77
6 -16 -3 -31.41 21.61
6 -16 -3 25.67 22.66
6 -16 -2 54.59 21.92
6 -16 -2 28.96 22.51
6 -16 -1 -7.06 20.52
6 -16 0 -8.09 20.38
6 -16 1 54.01 22
-6 -16 -1 40.78 19.3
6 -16 2 42.12 21.75
-6 -16 -2 44.42 19.5
6 -16 3 14.54 21.61
-6 -16 -3 -1.8 19
6 -16 4 -8.38 21.74
-6 -16 -4 2.76 19.12
-6 -16 -5 7.46 19.41
6 -16 5 -25.32 22.08
-6 -16 -6 62.53 20.24
6 -16 6 62.84 22.38
-6 -16 -7 36.02 19.3
6 -16 7 21.41 21.3
-6 -16 -8 46.71 20.26
-6 -16 -9 14.18 20.18
-16 6 -9 18.63 16.22
-6 -16 -10 7.28 20.83
-16 6 -10 26.33 16.75
-6 -16 -11 11.73 20.43
-16 6 -11 11.86 16.42
-6 -16 -12 8.7 21.36
-16 6 -12 29.31 17.52
-6 -16 -13 -12.24 22.27
-16 6 -13 25.41 17.72
-6 -16 -14 35.35 22.61
-16 6 -14 20.39 18.33
-6 -16 -15 46.65 23.68
-16 6 -15 72.03 19.55
-6 -16 -16 25.04 23.71
-16 6 -16 2.18 19.16
-6 -16 -17 30.34 24.75
-16 6 -17 1.12 19.73
-6 -16 -18 7.41 24.21
-16 6 -18 5.69 19.93
-7 16 -18 -7.24 23.01
7 16 18 -1.1 19.28
-7 16 -17 20.43 22.22
7 16 17 38.93 19.26
-7 16 -17 57.73 29.38
-7 16 -16 15.54 22.48
7 16 16 45.06 19.79
-7 16 -16 9.72 28.22
-7 16 -15 23.37 21.88
7 16 15 9.67 18.94
7 -16 -15 12.18 27.33
-7 16 -14 24.18 21.93
7 16 14 39.6 19.96
7 -16 -14 59.88 28.72
-7 16 -13 15.96 20.44
7 16 13 10.66 19.24
7 -16 -13 32.85 26.86
7 -16 -12 12.93 25.63
-7 16 -12 7.85 20.41
7 -16 -11 35.72 26.3
7 -16 -11 43.3 22.46
-7 16 -11 8.83 19.39
7 -16 -10 41.74 25.46
7 -16 -10 26.21 23.25
-7 16 -10 4.39 19.48
7 -16 -9 18.54 24.94
7 -16 -9 36.41 23.53
-7 16 -9 -20.4 19.41
7 -16 -8 108.52 26.53
7 -16 -8 98.18 23.95
-7 16 -8 107.86 21.15
7 -16 -7 52.41 22.76
7 -16 -7 101 25.9
7 -16 -6 17.46 21.62
7 -16 -6 44.46 24.6
7 -16 -5 4.12 21.43
7 -16 -5 15.41 23.51
7 -16 -4 55.53 22.22
7 -16 -4 -5.82 23.31
7 -16 -3 21.51 21.26
7 -16 -3 55.24 23.72
7 -16 -2 41 22.1
7 -16 -1 132.67 23.86
7 -16 0 112.73 23.96
7 -16 1 66.75 22.73
7 -16 2 22.15 21.28
7 -16 3 8.5 21.09
-7 -16 -3 40.24 19.08
-7 -16 -4 10.05 19.3
7 -16 4 -2.14 21.89
-7 -16 -5 -9.24 19.19
7 -16 5 23.74 22.18
-7 -16 -6 21.86 19.8
7 -16 6 39.06 22.25
-7 -16 -7 58.49 20.52
-7 -16 -8 76.56 21.24
-7 -16 -9 37.82 21.13
-16 7 -9 -3.46 15.93
-7 -16 -10 14.68 21.19
-16 7 -10 12.47 16.3
-7 -16 -11 9.64 20.51
-16 7 -11 1.84 16.75
-7 -16 -12 -13.18 21.96
-16 7 -12 2.86 17.02
-7 -16 -13 9.02 22.08
-16 7 -13 -24.65 18.06
-7 -16 -14 -15.04 22.95
-16 7 -14 39.69 18.36
-7 -16 -15 11.85 23.53
-16 7 -15 28.46 19.08
-7 -16 -16 52.99 24.18
-16 7 -16 65.66 20.25
-7 -16 -17 -1.22 23.85
-16 7 -17 32.74 19.71
-8 16 -17 1.22 22.09
8 16 17 -4.35 18.75
-8 16 -17 8.71 29.76
-8 16 -16 -9.76 22
8 -16 -16 -8.29 28.07
8 16 16 27.31 19.4
-8 16 -16 18.63 28.45
-8 16 -15 32.33 22.38
8 16 15 11.93 19.36
8 -16 -15 39.58 28.49
-8 16 -14 18.75 21.06
8 16 14 19.56 19.69
8 -16 -14 13.47 27.52
-8 16 -13 2.31 20.79
8 16 13 2.16 19.26
8 -16 -13 54.39 27.66
8 -16 -12 36.81 26.77
-8 16 -12 9.16 20.29
8 -16 -11 84.64 27.7
-8 16 -11 68.39 21.43
8 -16 -10 52.19 26.46
-8 16 -10 59.78 21.01
8 -16 -10 56.83 23.52
8 -16 -9 79.18 27.05
-8 16 -9 90.02 21.31
8 -16 -9 94.13 24.35
8 -16 -8 14.64 22.99
-8 16 -8 6.42 18.88
8 -16 -7 52.09 25.83
8 -16 -7 27.23 23.27
-8 16 -7 43.34 19.87
8 -16 -6 19.56 24.37
8 -16 -6 55.46 23.21
8 -16 -5 40.97 24.81
8 -16 -5 56.35 22.71
8 -16 -4 48.43 24.58
8 -16 -4 -10.4 21.69
8 -16 -3 82.34 23.41
8 -16 -2 110.82 23.6
8 -16 -1 135.65 24.56
8 -16 0 14.85 21.98
8 -16 1 123.09 24.33
8 -16 2 70.06 23.31
8 -16 3 82.4 23.31
8 -16 4 9.86 22.06
-8 -16 -5 50.76 20.15
8 -16 5 70.34 23.33
-8 -16 -6 57.98 20.02
-8 -16 -7 18.48 19.55
-8 -16 -8 25.94 20.14
-16 8 -9 79.42 17.44
-8 -16 -9 72.99 21.77
-16 8 -10 16.47 17.03
-8 -16 -10 57.96 21.74
-16 8 -11 51.66 17.86
-8 -16 -11 62.65 22.68
-16 8 -12 -5.8 17.08
-8 -16 -12 2.22 22.23
-16 8 -13 -8.94 17.66
-8 -16 -13 21.7 22.59
-16 8 -14 -6.17 17.53
-8 -16 -14 18.72 23.18
-16 8 -15 37.08 19.09
-8 -16 -15 16.72 23.23
-16 8 -16 -3.27 18.63
-8 -16 -16 -42.56 24.72
-16 8 -17 21.44 19.57
-9 16 -16 17.25 22.11
9 -16 -16 9.74 29.25
9 16 16 29.77 19.56
-9 16 -16 -13.23 28.96
-9 16 -15 72.15 23.64
9 -16 -15 2.75 28.55
9 16 15 13.22 19.15
-9 16 -15 -2.92 28.5
9 -16 -14 43.59 29.19
9 16 14 37.58 20.63
-9 16 -14 -21.47 21.63
9 -16 -13 59.41 28.59
-9 16 -13 -2.35 21.09
9 -16 -12 73.32 28.3
-9 16 -12 25.44 20.71
9 -16 -11 31.38 27.35
-9 16 -11 14.84 20.36
9 -16 -10 62.25 27.35
-9 16 -10 61.48 20.9
9 -16 -9 27.09 26.66
-9 16 -9 -13.23 19.95
9 -16 -8 3.83 25.82
9 -16 -8 23.42 23.56
-9 16 -8 -6.54 19.26
9 -16 -7 -6.29 24.95
9 -16 -7 30.77 23.81
-9 16 -7 -10.64 18.84
9 -16 -6 47.15 26.15
9 -16 -6 75.05 24.16
-9 16 -6 61.96 19.71
9 -16 -5 71.48 25.68
9 -16 -5 27.49 23.31
9 -16 -4 110.17 26.77
9 -16 -4 54.03 24.03
9 -16 -3 57.4 23.33
9 -16 -2 160.49 25.63
9 -16 -1 23.71 22.72
9 -16 0 27.2 22.54
9 -16 1 15.28 22.52
9 -16 2 160.62 25.56
9 -16 3 37.7 23.1
9 -16 4 105.73 24.03
-9 -16 -7 -1.94 19.65
-16 9 -8 27.41 16.56
-9 -16 -8 60.19 21.05
-16 9 -9 31.13 16.36
-9 -16 -9 4.14 20.91
-16 9 -10 55.69 17.48
-9 -16 -10 21.14 21.17
-16 9 -11 30.96 17.81
-9 -16 -11 14.17 21.88
-16 9 -12 38.52 17.76
-9 -16 -12 50.52 23.3
-16 9 -13 6.08 17.96
-9 -16 -13 -4.61 22.77
-16 9 -14 16.63 18.69
-9 -16 -14 38.92 23.43
-16 9 -15 5.35 18.39
-9 -16 -15 3.61 23.51
-16 9 -16 9.91 19.13
-9 -16 -16 8.57 24.08
-16 9 -17 36.32 25.25
10 -16 -15 37.49 29.86
10 16 15 5.56 19.35
10 -16 -14 9.66 28.41
-10 16 -14 -31.7 22.46
10 16 14 31.24 20.33
10 -16 -13 -6.78 27.25
-10 16 -13 36.81 21.91
10 -16 -12 8.02 27.37
-10 16 -12 -10.5 20.23
10 -16 -11 34.49 27.84
-10 16 -11 59.97 21.73
10 -16 -10 52.79 28.21
-10 16 -10 40.83 20.68
10 -16 -9 28.73 26.98
-10 16 -9 20.01 19.62
10 -16 -8 36.09 27.41
-10 16 -8 34.05 19.54
10 -16 -7 -3.82 26.07
-10 16 -7 -1.08 19.44
10 -16 -6 49.73 25.78
-10 16 -6 11.59 18.38
10 -16 -5 22.35 25.3
-10 16 -5 36.42 19.2
10 -16 -5 52.74 24.04
10 -16 -4 5.41 23.27
10 -16 -3 2.18 23.5
10 -16 -2 88.83 24.61
10 -16 -1 44.17 24.01
10 -16 0 48.75 23.97
10 -16 1 40.22 23.58
10 -16 2 67.29 24.1
10 -16 3 36.11 23.19
-16 10 -8 14.54 16.36
-16 10 -9 -13.09 16.74
-16 10 -10 47.34 18.12
-10 -16 -10 39.36 22
-16 10 -11 8.96 17.47
-10 -16 -11 9.88 22.14
-16 10 -12 -21.32 22.7
-16 10 -12 28.57 18.33
-10 -16 -12 17 22.48
-16 10 -13 13.39 23.71
-16 10 -13 21.79 18.04
-10 -16 -13 -15.07 23.43
-16 10 -14 -2.49 23.91
-16 10 -14 11.67 18.58
-10 -16 -14 68.8 24.53
-16 10 -15 19.2 24.69
-16 10 -15 -26.06 19.37
-10 -16 -15 -19.34 23.67
-16 10 -16 -9.16 24.8
11 -16 -14 -24.74 29.22
11 16 14 20.21 20.19
11 -16 -13 28.58 29.13
-11 16 -13 -26.54 21.58
11 -16 -12 35.41 28.8
-11 16 -12 21.21 20.87
11 -16 -11 64.72 29.2
-11 16 -11 35.88 20.71
11 -16 -10 14.65 28.01
-11 16 -10 -26.27 20
11 -16 -9 25.02 27.64
-11 16 -9 -11.23 19.5
11 -16 -8 -2.6 27.3
-11 16 -8 2.2 19.22
11 -16 -7 33.02 26.48
-11 16 -7 -36.93 19.58
11 -16 -6 12.69 26.19
-11 16 -6 -30 19.25
-11 16 -5 21.88 18.85
11 -16 -4 58.74 24.66
-11 16 -4 57.42 19.33
11 -16 -3 107.24 26.11
11 -16 -2 49.24 24.96
11 -16 -1 64.14 25
11 -16 0 26.08 23.71
11 -16 1 -9.09 23.3
-16 11 -8 -7.5 16.87
-16 11 -9 -17.32 17.24
-16 11 -10 -17.77 17.41
-16 11 -11 5.09 18.01
-16 11 -12 44.66 24.46
-16 11 -12 25.12 18.55
-11 -16 -12 26.16 22.97
-16 11 -13 11.41 23.8
-16 11 -13 14.98 18.94
-11 -16 -13 -3.49 23.22
-16 11 -14 -9.08 24.25
-16 11 -14 35.84 19.4
-11 -16 -14 21.44 23.95
12 -16 -13 8.29 29.91
12 -16 -12 6.85 30.04
-12 16 -12 23.88 20.4
12 -16 -11 14.87 28.52
-12 16 -11 -18.65 20.49
12 -16 -10 8.04 29.24
-12 16 -10 3.43 19.8
12 -16 -9 62.18 29.45
-12 16 -9 -2.26 19.92
12 -16 -8 -1.3 27.36
-12 16 -8 -8.87 19.73
12 -16 -7 25.86 27.59
-12 16 -7 53.11 19.6
-12 16 -6 -6.41 18.38
-12 16 -5 -1.06 18.35
-12 16 -4 25.72 17.97
-12 16 -3 35.3 18.31
12 -16 -2 59.53 26.05
-12 16 -2 -4.97 17.12
12 -16 -1 51.59 25.32
12 -16 0 48.35 24.82
-16 12 -8 41.37 17.55
-16 12 -9 8.94 17.45
-16 12 -10 1.02 17.86
-16 12 -11 21.86 18.69
-16 12 -12 40.71 19.1
-16 12 -12 28.83 24.65
-16 12 -13 -17.18 25.32
13 -16 -11 -14.9 29.52
13 -16 -10 -14.7 29.12
-13 16 -10 10.34 20.03
13 -16 -9 3.95 28.04
-13 16 -9 16.91 19.29
13 -16 -8 -14.44 27.96
-13 16 -8 24.46 19.47
-13 16 -7 -5.46 18.75
-13 16 -6 22.39 18.47
-13 16 -5 39.79 18.46
-13 16 -4 -12.44 17.85
-13 16 -3 22.27 17.71
-13 16 -2 5.93 17.41
-13 16 -1 17.51 17.11
-16 13 -8 28.05 17.54
-16 13 -9 -3.05 17.3
-16 13 -10 22.09 18.43
-16 13 -11 22.46 18.28
-14 16 -8 -16.61 19.05
-14 16 -7 -1.09 18.45
-14 16 -6 33.24 19.23
-14 16 -5 -14.66 17.93
-14 16 -4 -1.03 17.92
-14 16 -3 43.51 18.78
-16 14 -8 18.74 18.82
-16 14 -9 -26.42 18.62
-15 16 -6 40.3 18.55
-15 16 -5 -10.5 18.61
0 -17 0 12.75 19.96
0 -17 -1 45.52 20.8
0 -17 1 17.56 19.94
0 -17 -1 -11.43 20.59
0 -17 -2 59.03 21.24
0 -17 2 56.76 20.62
0 -17 -2 29.06 20.52
0 -17 -3 101.02 21.95
0 -17 3 86.77 21.83
0 -17 -3 63.56 21.71
0 -17 -4 4.06 20.12
0 -17 4 37.9 20.31
0 -17 -4 -7.1 21.44
0 -17 -5 47.04 21.49
0 -17 5 96.37 21.8
0 -17 -5 72.61 22.55
0 -17 -6 33.04 21.33
0 -17 6 0.98 20.04
0 -17 -6 28.32 21.82
0 -17 -7 -5.23 21
0 17 7 3.43 17.2
0 -17 7 -26.66 20.3
0 -17 -7 16.07 21.95
0 -17 -8 37.11 21.74
0 17 8 1.74 17.47
0 -17 8 -12.86 19.81
0 -17 -8 19.64 22.03
0 -17 -9 22.44 21.38
0 17 9 22.96 17.57
0 -17 9 5.97 20.24
0 -17 -9 -4.45 22.34
0 -17 -10 14.87 22.79
0 17 10 38.67 18.17
0 -17 -10 -4.32 21.36
0 17 11 77.48 18.91
0 -17 -11 95.14 23.65
0 17 12 29.07 18.38
0 -17 -12 -2.21 21.72
0 -17 -13 48.04 23.38
0 17 13 78.08 19.84
0 -17 -14 29.4 23.54
0 17 14 30.77 18.98
0 -17 -15 -28.32 23.06
-17 0 -15 41.54 20.31
0 17 15 7.13 18.57
0 -17 -16 5.75 22.97
-17 0 -16 39.24 19.82
0 17 16 -16.77 19.5
0 -17 -17 59.37 24.87
-17 0 -17 24.64 20.42
0 17 17 -6.5 19.91
0 -17 -18 49.46 24.82
-17 0 -18 20.6 20.3
0 17 18 -10.04 19.93
1 -17 -18 45.24 25
-17 -1 -18 9.13 20.3
1 17 18 1.11 19.96
1 -17 -17 1.15 23.98
-17 -1 -17 -11.13 19.5
1 17 17 -12.98 19.26
1 -17 -16 1.15 23.57
-17 -1 -16 14.09 19.06
1 17 16 9.49 19.63
1 17 15 10.3 18.82
1 -17 -15 9.13 23.18
1 17 14 13.02 18.53
1 -17 -14 -12.41 23.74
1 17 13 35.16 19.34
1 -17 -13 24.59 23.15
1 17 12 -0.95 18.12
1 -17 -12 47.5 23.09
-1 17 -11 -12.1 19.81
1 17 11 6.61 17.53
1 -17 -11 10.92 21.57
1 17 10 32.4 17.93
1 -17 -10 16.36 23.23
1 -17 -10 33.68 21.97
1 17 9 40.33 18.37
1 -17 -9 48.11 24.16
1 -17 -9 -1.07 22.09
1 17 8 70.46 18.82
1 -17 -8 23.56 23.07
1 -17 -8 -1.06 21.3
1 -17 -7 1.11 22.74
1 -17 -7 17.78 20.85
-1 -17 7 -34.52 19.99
1 -17 -6 46.26 22.93
1 -17 -6 1.04 21.02
-1 -17 6 34.33 19.76
1 -17 -5 76.66 23.45
1 -17 -5 90.59 21.54
-1 -17 5 84.61 21.34
1 -17 -4 77.75 23.31
1 -17 -4 55.45 21.86
-1 -17 4 59.04 21.22
1 -17 -3 35 22.2
1 -17 -3 64.2 21.55
-1 -17 3 25.88 19.75
1 -17 -2 1 21.22
1 -17 -2 26.19 20.33
-1 -17 2 31.66 20.07
1 -17 -1 1.98 21.15
-1 -17 1 38.42 20.29
1 -17 -1 27.98 20.28
1 -17 0 -0.99 19.56
-1 -17 0 13.58 20.13
-1 -17 -1 -0.98 19.79
1 -17 1 -7.97 20.13
-1 -17 -2 14.87 20.34
1 -17 2 16.93 20.23
-1 -17 -3 37.87 21.09
1 -17 3 78.25 21.34
-1 -17 -4 133.79 22.59
1 -17 4 90.28 22.06
-1 -17 -5 66.2 22.31
-1 -17 -5 120.79 22.78
1 -17 5 71.78 21.21
-1 -17 -6 44.83 21.76
-1 -17 -6 37.15 20.25
-1 17 6 12.95 16.79
1 -17 6 -1 19.74
-1 -17 -7 2.08 21.39
-1 -17 -7 -9.42 21.06
-1 17 7 21.39 17.08
1 -17 7 44.58 20.95
-1 -17 -8 1.06 21.81
-1 -17 -8 38.04 21.28
-1 17 8 9.25 16.92
1 -17 8 16.25 20.83
-1 -17 -9 10.68 20.53
1 -17 9 7.15 20.39
-1 -17 -9 49.99 22.43
-1 17 9 10.28 17.56
-1 17 10 3.48 16.89
-1 -17 -10 6.49 21.35
-1 -17 -11 4.38 21.14
-1 17 11 10.77 17.66
-1 -17 -12 35.38 22.13
-1 17 12 2.77 17.78
-1 -17 -13 26.69 22.56
-1 17 13 20.01 17.99
-1 -17 -14 38.39 23
-17 1 -14 28.48 18.82
-1 17 14 14.73 18.41
-1 -17 -15 27.51 23.66
-17 1 -15 25.3 19.44
-1 17 15 12.14 18.64
-1 -17 -16 10.46 23.73
-17 1 -16 22.95 19.98
-1 17 16 -9.44 19.34
-1 -17 -17 -15.31 23.58
-17 1 -17 -2.25 19.92
-1 17 17 31.39 19.98
-1 -17 -18 -15.47 24.35
-17 1 -18 -21.83 20.03
2 -17 -18 60.56 25.73
2 17 18 20.03 20.07
-17 -2 -18 35.53 20.73
-17 -2 -17 -2.24 19.81
2 17 17 11.96 19.87
2 -17 -17 62.45 25.18
-17 -2 -16 27.2 19.94
2 17 16 37.18 19.67
2 -17 -16 38.98 24.21
2 17 15 -10.38 19.17
2 -17 -15 1.14 23.81
2 17 14 12.16 18.33
2 -17 -14 37.22 23.31
2 17 13 -2.97 18.35
2 -17 -13 52.38 23.9
-2 17 -12 30.38 20.68
2 17 12 9.84 18.58
2 -17 -12 16.6 22.71
-2 17 -11 34.3 20.6
2 -17 -11 18.29 24.41
2 17 11 12.58 18.19
2 -17 -11 39.49 22.88
2 17 10 86.35 19.71
2 -17 -10 79.25 23.69
2 -17 -9 69.13 24.35
2 17 9 55.85 18.94
2 -17 -9 87.91 23.45
2 -17 -8 76.31 22.45
2 -17 -8 33.49 23.93
2 -17 -7 130.46 24.11
2 -17 -7 183.97 26.45
2 -17 -6 120.31 23.14
-2 -17 6 52.88 20.34
2 -17 -6 77.59 23.94
2 -17 -5 82.27 22.68
-2 -17 5 37.16 20.39
2 -17 -5 44.08 22.94
2 -17 -4 9.3 21.19
-2 -17 4 37.4 20.28
2 -17 -4 47.66 22.97
2 -17 -3 6.14 21.11
-2 -17 3 34.84 20.62
2 -17 -3 75.56 23.23
2 -17 -2 107.64 23.14
-2 -17 2 121.19 22.21
2 -17 -2 159.15 24.32
-2 -17 1 55.02 20.29
2 -17 -1 33.32 21.01
-2 -17 0 6.71 19.85
2 -17 0 29.33 20.73
-2 -17 -1 35.13 20.77
2 -17 1 52.64 21.15
-2 -17 -2 109.65 21.83
2 -17 2 57.44 20.62
-2 -17 -3 45.51 21.04
2 -17 3 88.8 21.16
-2 -17 -4 21.98 20.9
2 -17 4 72.93 21.51
-2 17 4 66.92 17.05
-2 -17 -5 49.72 21.64
2 -17 5 47.99 21.14
-2 17 5 62.33 17.35
-2 -17 -6 85.58 22.42
2 -17 6 57.7 21.46
-2 17 6 101.34 17.48
-2 -17 -7 139.12 23.43
2 -17 7 118.05 23.36
-2 17 7 124.74 18.66
-2 -17 -8 31.56 21.57
2 -17 8 20.86 21.49
-2 17 8 47.41 16.68
-2 17 9 85.34 18.27
2 -17 9 86.7 22.68
-2 -17 -9 101.26 22.91
-2 -17 -10 58.37 21.98
-2 17 10 14.56 17.2
-2 -17 -11 30.32 22.12
-2 17 11 46.02 17.9
-2 -17 -12 -28.67 22.85
-2 17 12 4.57 17.37
-2 -17 -13 51.63 23.42
-2 17 13 32.09 19.03
-2 17 14 2.93 18.25
-2 -17 -14 -3.43 22.53
-17 2 -14 40.42 18.75
-2 17 15 14.19 19.07
-2 -17 -15 10.41 23.04
-17 2 -15 25 19.33
-2 17 16 11.56 19.27
-17 2 -16 -1.07 18.68
-2 -17 -16 38.67 23.84
-17 2 -17 -3.31 19.57
-2 -17 -17 1.19 24.09
-17 2 -18 -2.28 19.97
-2 -17 -18 26.33 24.64
-17 -3 -18 32.32 21.06
3 -17 -18 1.16 23.47
3 17 17 13.12 19.58
-17 -3 -17 10.1 19.81
3 -17 -17 25.37 23.93
3 -17 -16 1.14 24.25
3 17 16 11.78 19.24
3 -17 -15 -2.27 23.7
3 17 15 -22.01 19.56
-3 17 -14 9.83 21.27
3 -17 -14 28.23 23.83
3 17 14 -4.1 18.45
-3 17 -13 31.42 21.3
3 -17 -13 19.06 23.47
3 17 13 4.07 18.48
-3 17 -12 9.77 20.78
3 -17 -12 57 25.42
3 -17 -12 75.32 23.95
3 17 12 -11.07 18.87
-3 17 -11 38.41 21.44
3 -17 -11 41.56 22.9
3 17 11 85.73 20.12
3 -17 -10 8.55 24.01
3 -17 -10 34.62 22.06
3 17 10 33.61 18.96
3 -17 -9 104.31 23.9
3 -17 -9 101.9 26.48
3 -17 -8 67.26 22.76
3 -17 -8 111.6 25.93
3 -17 -7 46.63 22.6
3 -17 -7 37 23.49
3 -17 -6 41.3 22.11
3 -17 -6 4.57 22.95
3 -17 -5 35.61 21.58
3 -17 -5 -1.13 22.12
3 -17 -4 -6.23 21.16
-3 -17 4 10.08 19.89
3 -17 -4 43.47 23.28
3 -17 -3 15.47 21.42
-3 -17 3 -9.2 19.75
3 -17 -3 10.95 22.1
3 -17 -2 82.01 22.61
-3 -17 2 102.56 21.24
3 -17 -2 86.95 23.25
3 -17 -1 24.67 21.75
-3 -17 1 36.52 20.52
3 -17 0 258.35 27.12
-3 -17 0 270.31 25.03
3 -17 1 51.27 21.68
-3 -17 -1 10.56 20.08
3 -17 2 121.99 22.94
-3 -17 -2 95.9 21.28
3 -17 3 10.29 20.71
-3 -17 -3 -0.98 20.06
3 -17 4 2.07 20.43
-3 -17 -4 19.91 20
3 -17 5 55.4 22.09
-3 -17 -5 25.31 21.17
3 -17 6 35.85 21.35
-3 -17 -6 2.04 20.52
-3 17 7 47.87 16.87
-3 -17 -7 71.49 22.11
3 -17 7 66.77 22.05
-3 -17 -8 110.46 22.77
-3 17 8 105.49 18.08
3 -17 8 108.88 23.44
-3 -17 -9 84.96 22.66
-3 17 9 55.43 17.44
3 -17 9 86.74 22.98
-3 -17 -10 -4.29 20.33
-3 17 10 13.54 16.86
-3 -17 -11 34.94 21.39
-3 17 11 38.49 18.11
-3 -17 -12 3.34 22.36
-3 17 12 23.55 18.05
-17 3 -13 15.7 18.09
-3 -17 -13 26.01 22.69
-3 17 13 6.57 18.32
-17 3 -14 6.09 18.25
-3 -17 -14 14.93 23.11
-3 17 14 7.83 18.26
-17 3 -15 7.29 18.68
-3 -17 -15 -1.16 22.61
-3 17 15 -22.43 19.55
-3 -17 -16 8.25 23.17
-17 3 -16 3.21 18.83
-3 -17 -17 35.87 23.67
-17 3 -17 13.19 19.55
-17 3 -18 14.64 19.56
-17 -4 -18 8.23 21.17
4 17 17 84.92 21.21
4 -17 -16 21.71 23.45
4 17 16 10.8 18.55
-4 17 -15 34.99 21.8
4 -17 -15 4.54 24.48
4 17 15 29.67 19.48
-4 17 -14 15.79 21.59
4 -17 -14 55.1 24.42
4 17 14 21.98 19.04
-4 17 -13 31.24 21.29
4 -17 -13 14.42 25.53
4 -17 -13 16.69 23.91
4 17 13 17.74 19.43
-4 17 -12 36.85 21.43
4 -17 -12 61.67 26.24
4 -17 -12 11.02 23.18
4 17 12 34.17 20.13
-4 17 -11 -6.59 20.12
4 -17 -11 19.01 25.33
4 -17 -11 14.26 22.67
4 17 11 -9.25 18.8
4 -17 -10 3.74 24.96
4 -17 -10 17.4 22.21
-4 17 -10 26.11 19.93
4 -17 -9 93.03 23.9
4 -17 -9 88.7 25.51
4 -17 -8 43.99 22.8
4 -17 -8 31.44 24.69
4 -17 -7 62.14 22.6
4 -17 -7 88.86 24.96
4 -17 -6 54.02 22.75
4 -17 -6 27.12 23.51
4 -17 -5 48.38 21.74
4 -17 -5 88.41 24.22
4 -17 -4 -6.27 21.29
4 -17 -4 38.94 23.28
4 -17 -3 -1.04 20.65
4 -17 -3 -33.58 22.73
4 -17 -2 22.19 22.19
-4 -17 2 68.26 20.64
4 -17 -2 37.54 21.86
-4 -17 1 172.62 23.24
4 -17 -1 154.6 25.1
-4 -17 0 243.03 25.18
4 -17 0 256.17 27.11
-4 -17 -1 183.78 23.72
4 -17 1 214.28 25.72
-4 -17 -2 39.29 20.35
4 -17 2 29.23 21.44
-4 -17 -3 27.25 20.35
4 -17 3 13.66 21.3
-4 -17 -4 7.95 20.02
4 -17 4 6.36 20.92
-4 -17 -5 46.18 20.59
4 -17 5 9.64 21.54
-4 -17 -6 -1.02 20.42
4 -17 6 34.39 21.67
-4 -17 -7 88.96 22.39
4 -17 7 84.75 23.43
4 -17 8 7.62 21.49
-4 -17 -8 9.41 20.51
-4 17 9 78.65 17.93
-4 -17 -9 83.39 22.14
-4 17 10 15.86 17.24
-4 -17 -10 -5.4 20.61
-4 17 11 25.99 17.14
-4 -17 -11 5.51 21.35
-4 17 12 24.4 17.6
-4 -17 -12 -17.95 22.19
-4 17 13 3.78 18.89
-4 -17 -13 42.05 23.26
-17 4 -13 18.99 18.26
-4 17 14 0.98 18.43
-4 -17 -14 49.57 23.4
-17 4 -14 31.68 18.81
-4 -17 -15 2.35 22.68
-17 4 -15 1.05 18.2
-4 -17 -16 29.86 24.02
-17 4 -16 13.94 19.09
-4 -17 -17 32.73 24.36
-17 4 -17 36.37 19.99
-17 4 -18 -12.38 19.81
-5 17 -18 10.88 28.48
-5 17 -17 5.36 27.76
5 17 17 3.33 19.44
-5 17 -16 -13.2 27.52
5 17 16 -14.19 19.55
-5 17 -16 9.38 22.4
5 -17 -15 47.33 22.78
-5 17 -15 63.89 22.97
5 17 14 34.42 19.5
5 -17 -14 33.74 27.73
5 -17 -14 33.56 23.39
-5 17 -14 2.32 22.27
5 17 13 40.4 19.9
5 -17 -13 -9.27 26.18
5 -17 -13 2.23 23.47
-5 17 -13 -5.72 21.38
5 17 12 1.06 19.28
5 -17 -12 -19.62 25.71
5 -17 -12 53.08 24.63
-5 17 -12 35.21 21.99
5 17 11 23.07 19.95
-5 17 -11 1.13 20.62
5 -17 -11 4.39 22.93
5 -17 -11 23.15 26.08
-5 17 -10 25.52 20.81
5 -17 -10 29.54 22.8
5 -17 -10 -3.82 25.42
-5 17 -9 100.49 21.85
5 -17 -9 88.47 24.59
5 -17 -9 57.8 25.15
5 -17 -8 30.27 22.25
5 -17 -8 12.28 23.93
5 -17 -7 -8.58 22.14
5 -17 -7 21.98 23.95
5 -17 -6 36.2 22.06
5 -17 -6 -15.74 24.67
5 -17 -5 -7.41 21.28
5 -17 -5 45.23 23.8
5 -17 -4 25.33 21.87
5 -17 -4 -3.52 22.98
5 -17 -3 43.46 21.71
5 -17 -3 40.17 23.02
5 -17 -2 34.94 21.75
5 -17 -2 43.36 23.43
5 -17 -1 44.34 22.45
5 -17 0 40.12 21.99
-5 -17 0 32.27 19.77
5 -17 1 58.28 23.1
-5 -17 -1 6.55 19.51
5 -17 2 7.46 21.43
-5 -17 -2 22.79 20.07
5 -17 3 18.28 21.98
-5 -17 -3 6.78 19.54
5 -17 4 11.96 21.72
-5 -17 -4 15.74 19.91
5 -17 5 5.45 21.02
-5 -17 -5 24.92 20.75
5 -17 6 34.12 22.04
-5 -17 -6 -19.29 20.28
-5 -17 -7 21.67 20.56
5 -17 7 35.39 22.14
-5 -17 -8 39.51 21.46
-5 -17 -9 42.54 21.71
-5 -17 -10 34.72 21.94
-5 -17 -11 -17.67 21.59
-17 5 -12 5.89 17.6
-5 -17 -12 13.45 21.3
-5 17 12 8.18 17.98
-5 -17 -13 27.42 23.26
-17 5 -13 2.03 18.14
-5 -17 -14 -5.84 22.63
-17 5 -14 45.79 19.06
-5 -17 -15 5.94 23.45
-17 5 -15 -11.7 18.5
-5 -17 -16 -2.42 23.78
-17 5 -16 -31.61 19.87
-5 -17 -17 58.73 25.48
-17 5 -17 1.11 19.31
-6 17 -17 20.83 22.89
-6 17 -17 5.56 28.01
6 17 16 32.98 19.34
6 -17 -16 46.37 29.14
-6 17 -16 -10.85 22.89
-6 17 -16 16.47 28.52
6 17 15 46.12 20.27
-6 17 -15 34.57 23
6 -17 -15 31.82 28.51
6 17 14 -1.09 19.53
6 -17 -14 14.96 27.63
-6 17 -14 24.81 22.2
6 17 13 34.91 20
6 -17 -13 72.75 28.92
-6 17 -13 30.52 23.04
6 17 12 39.05 19.86
6 -17 -12 42.41 27.37
6 -17 -12 48.85 23.67
-6 17 -12 6.94 20.93
6 -17 -11 11.81 25.8
6 -17 -11 57.79 24.44
-6 17 -11 55.44 22.28
6 -17 -10 9.1 25.94
6 -17 -10 28.6 23.57
-6 17 -10 21.58 21.09
6 -17 -9 38.13 25.65
6 -17 -9 46.95 23.42
-6 17 -9 -1.12 20.38
6 -17 -8 41.19 23.08
6 -17 -8 -3.77 24.45
6 -17 -7 -23.7 22.97
6 -17 -7 7.51 24.65
6 -17 -6 22.51 22.93
6 -17 -6 7.4 24.16
6 -17 -5 124.32 24.01
6 -17 -5 62.08 25.33
6 -17 -4 18.28 21.53
6 -17 -4 -4.76 23.3
6 -17 -3 94.46 23.68
6 -17 -3 69.68 24.87
6 -17 -2 44.92 22.43
6 -17 -1 49.27 22.1
6 -17 0 35.46 21.42
6 -17 1 9.73 21.3
-6 -17 -2 -31.03 19.8
6 -17 2 71.94 22.76
-6 -17 -3 25.01 19.91
6 -17 3 61.61 23.3
-6 -17 -4 18.53 19.4
6 -17 4 26.58 22.64
-6 -17 -5 80.51 21.53
6 -17 5 44.58 22.88
-6 -17 -6 26.31 20.84
6 -17 6 31.43 22.19
-6 -17 -7 6.1 20.07
6 -17 7 4.51 21.97
-6 -17 -8 -8.34 20.71
-6 -17 -9 23.51 21.32
-6 -17 -10 13.05 21.18
-6 -17 -11 27.66 22.04
-6 -17 -12 24.87 22.65
-17 6 -12 -5.85 17.46
-6 -17 -13 62.42 23.62
-17 6 -13 61.96 19.43
-6 -17 -14 20.01 22.94
-17 6 -14 28.35 18.78
-6 -17 -15 -20.35 23.83
-17 6 -15 5.4 18.88
-6 -17 -16 -8.51 23.52
-17 6 -16 18.74 19.27
-17 6 -17 -25.9 20.2
7 17 16 29.94 19.92
-7 17 -16 76.97 24.79
-7 17 -16 8.53 29.6
7 17 15 -6.71 19.49
7 -17 -15 9.77 28.31
7 17 14 28.94 20.04
-7 17 -14 25.23 22.4
7 -17 -14 55.2 28.84
7 17 13 6.66 19.45
-7 17 -13 53.99 22.75
7 -17 -13 34.06 28.29
-7 17 -12 54.16 21.8
7 -17 -12 18.94 26.92
-7 17 -11 37.24 21.29
7 -17 -11 36.07 27.06
7 -17 -11 16.61 24.11
-7 17 -10 -3.48 20.64
7 -17 -10 5.23 26.33
7 -17 -10 4.41 23.52
-7 17 -9 -14.76 21.16
7 -17 -9 16.87 25.87
7 -17 -9 47.08 23.63
-7 17 -8 6.74 19.77
7 -17 -8 -2.58 24.92
7 -17 -8 38.14 23.48
7 -17 -7 31.84 25.16
7 -17 -7 39.11 23.52
7 -17 -6 17.6 25.06
7 -17 -6 39.18 23.4
7 -17 -5 1.24 24.35
7 -17 -5 44.71 22.91
7 -17 -4 55.88 25.72
7 -17 -4 64.19 23.7
7 -17 -3 21.76 24.5
7 -17 -3 26.01 22.54
7 -17 -2 19.55 22.08
7 -17 -1 11.99 21.67
7 -17 0 46.02 22.59
7 -17 1 11.05 22.24
7 -17 2 56.86 23.56
7 -17 3 35.89 22.58
7 -17 4 21.43 22.36
-7 -17 -4 42.6 20.17
-7 -17 -5 28.66 20.71
7 -17 5 15.91 22.36
7 -17 6 70.73 23.12
-7 -17 -6 38.19 20.8
-7 -17 -7 15.29 20.09
-7 -17 -8 4.18 20.75
-7 -17 -9 20.36 21.21
-7 -17 -10 16.32 21.4
-7 -17 -11 40.07 22.59
-17 7 -12 19.55 17.27
-7 -17 -12 -3.42 22.28
-17 7 -13 27.21 18.26
-7 -17 -13 -8.16 22.67
-17 7 -14 11.49 18.78
-7 -17 -14 -15.42 22.89
-17 7 -15 3.26 19.07
-7 -17 -15 -30.13 24.05
-17 7 -16 1.12 19.29
-7 -17 -16 13.52 24.22
8 17 15 13.55 20.36
-8 17 -15 32.28 23.61
8 -17 -15 36.61 28.37
8 17 14 29.46 20.31
-8 17 -14 15.93 22.62
8 -17 -14 58.59 29.41
8 17 13 61.06 21.18
-8 17 -13 2.42 21.51
8 -17 -13 47.07 29.06
-8 17 -12 36 22.48
8 -17 -12 17.78 27.26
-8 17 -11 -7.08 20.94
8 -17 -11 -2.69 27.52
-8 17 -10 59.57 21.7
8 -17 -10 39.98 27.16
8 -17 -10 51.9 25.1
-8 17 -9 5.8 20.49
8 -17 -9 47.39 24.15
8 -17 -9 58.34 27.58
-8 17 -8 -26.05 20.62
8 -17 -8 -9.94 24.02
8 -17 -8 20.98 26.69
-8 17 -7 39.27 20.22
8 -17 -7 9.05 25.22
8 -17 -7 -9.96 23.25
8 -17 -6 44.71 26.25
8 -17 -6 51.92 24.03
8 -17 -5 -3.74 25.1
8 -17 -5 34.07 23.29
8 -17 -4 47.31 25.15
8 -17 -4 30.77 23.2
8 -17 -3 52.85 23.65
8 -17 -2 21 22.91
8 -17 -1 30.01 22.8
8 -17 0 43.68 23.05
8 -17 1 68.98 23.87
8 -17 2 38.57 23.11
8 -17 3 70.84 23.85
8 -17 4 109.26 24.93
8 -17 5 8.08 22.69
-8 -17 -6 61.55 20.9
-8 -17 -7 13.28 20.56
-8 -17 -8 12.59 21.06
-8 -17 -9 28.84 21.75
-8 -17 -10 33.82 21.88
-17 8 -11 5.74 17.35
-8 -17 -11 -12.33 22.31
-17 8 -12 11.82 17.76
-8 -17 -12 61.96 23.6
-17 8 -13 -15.26 18.31
-8 -17 -13 10.51 22.75
-17 8 -14 27.25 18.83
-8 -17 -14 -20.27 23.51
-17 8 -15 11.84 18.34
-8 -17 -15 21.92 24.3
9 -17 -14 11.32 29.96
-9 17 -14 -11.17 22.38
9 17 14 2.29 19.68
9 -17 -13 68.21 28.95
-9 17 -13 40.4 22.77
9 17 13 45.7 20.48
-9 17 -12 9.71 21.47
9 -17 -12 65.82 29.67
-9 17 -11 -27.54 21.27
9 -17 -11 -4.09 27.44
-9 17 -10 12.96 20.48
9 -17 -10 5.43 27.86
-9 17 -9 9.34 20.72
9 -17 -9 17.47 27.43
-9 17 -8 28.79 20.86
9 -17 -8 75.57 28.21
9 -17 -8 7.83 24.36
-9 17 -7 -13.52 19.35
9 -17 -7 -24.89 26.01
9 -17 -7 7.8 23.95
-9 17 -6 20.08 19.52
9 -17 -6 35.61 24.65
9 -17 -6 1.29 25.46
9 -17 -5 52.38 24.37
9 -17 -5 43.4 26.19
9 -17 -4 -10.05 23.7
9 -17 -3 15.7 23.24
9 -17 -2 82.39 24.88
9 -17 -1 17.04 23.2
9 -17 0 52.69 24.64
9 -17 1 -1.15 23.27
9 -17 2 12.72 23.12
9 -17 3 8.15 23.25
9 -17 4 53.73 24.47
-9 -17 -8 8.35 21.19
-9 -17 -9 -9.59 21.59
-9 -17 -10 58.15 23.03
-9 -17 -11 34.92 22.47
-17 9 -11 7.8 17.58
-9 -17 -12 -48.31 23.46
-17 9 -12 1 17.47
-9 -17 -13 32.88 23.24
-17 9 -13 33.86 18.37
-9 -17 -14 -43.26 24.08
-17 9 -14 10.57 18.29
10 -17 -13 -20.96 29.92
-10 17 -12 1.22 21.47
10 -17 -12 47.39 29.6
-10 17 -11 35.16 21.87
10 -17 -11 23.56 28.67
-10 17 -10 66.54 22.05
10 -17 -10 24.66 28.37
-10 17 -9 111.11 22.83
10 -17 -9 89.48 29.67
-10 17 -8 25.46 20.6
10 -17 -8 1.34 27.87
-10 17 -7 38.82 20.25
10 -17 -7 46.02 27.21
-10 17 -6 41.27 20.13
10 -17 -6 27.42 26.61
10 -17 -6 -7.91 24.89
10 -17 -5 34 24.49
-10 17 -5 24.29 19.43
10 -17 -4 13.67 24.58
10 -17 -3 32.09 24.78
10 -17 -2 85.44 25.69
10 -17 -1 18.56 24.54
10 -17 0 23.25 23.91
10 -17 1 -1.17 24.18
10 -17 2 76.45 26.16
10 -17 3 31.91 24.03
-10 -17 -11 9.03 22.08
-17 10 -11 -41.16 18.29
-10 -17 -12 5.76 22.93
-17 10 -12 11.24 18.19
-10 -17 -13 -34.23 23.95
-17 10 -13 21.94 18
-11 17 -11 2.42 21.08
11 -17 -11 -41.77 29.57
-11 17 -10 4.8 20.71
11 -17 -10 73.09 30.56
-11 17 -9 -28.21 20.67
11 -17 -9 20.46 29.03
-11 17 -8 12.73 20.43
11 -17 -8 41.52 28.39
-11 17 -7 30.89 20.34
11 -17 -7 5.32 27.23
-11 17 -6 23.68 20.46
-11 17 -5 -13.21 19.06
-11 17 -4 27.15 19.53
11 -17 -4 22.09 25.68
11 -17 -3 -5.85 25.12
11 -17 -2 46.92 26.03
11 -17 -1 42.44 25.74
11 -17 0 34.43 25.59
11 -17 1 14.27 25.27
11 -17 2 37.06 25.55
-17 11 -11 -18.54 18.16
-17 11 -12 21 18.65
12 -17 -10 11.05 29.01
-12 17 -9 27.26 21.32
12 -17 -9 6.77 28.51
-12 17 -8 -22.03 19.92
12 -17 -8 8.11 28.07
-12 17 -7 -34.17 20.04
-12 17 -6 19.16 19.63
-12 17 -5 43.39 20.08
-12 17 -4 24.92 18.99
-12 17 -3 -7.47 18.35
12 -17 -2 4.78 25.56
12 -17 -1 33.53 26.33
12 -17 0 22.82 25.99
-17 12 -11 9.49 18.17
-13 17 -7 34.24 20.32
-13 17 -6 22.35 19.58
-13 17 -5 4.41 18.96
-13 17 -4 8.72 18.98
-13 17 -3 22.38 18.23
-13 17 -2 26.05 18.44
-13 17 -1 9.25 17.87
-14 17 -5 12.02 18.8
-14 17 -4 13.98 18.7
-14 17 -3 30.77 18.74
0 -18 0 136.45 23.8
0 -18 -1 -2.1 20.83
0 -18 1 43.76 21.41
0 -18 -2 -22.24 21.59
0 -18 2 11.44 20.76
0 -18 -3 70.78 22.35
0 -18 3 68.19 22.27
0 -18 -3 128.92 23.9
0 -18 -4 50.57 22.57
0 -18 4 -1.03 20.52
0 -18 -4 67.99 22.94
0 -18 -5 9.76 21.18
0 -18 5 -2.07 20.49
0 -18 -5 1.09 22.06
0 -18 -6 18.61 21.29
0 18 6 29.16 17.73
0 -18 6 6.24 20.61
0 -18 -6 -5.47 21.95
0 -18 -7 -20.93 21.68
0 18 7 0.9 17.81
0 -18 7 26.18 21.31
0 -18 -7 2.24 22.78
0 -18 -8 167.36 25.2
0 18 8 164.99 21.27
0 -18 8 191.17 24.69
0 -18 -8 158.27 26.23
0 -18 -9 12.79 23.88
0 -18 -9 -10.18 22.44
0 18 9 20.4 18.44
0 -18 -10 40.48 24.77
0 -18 -10 9.13 22.96
0 18 10 5.61 17.92
0 -18 -11 25.5 25.12
0 -18 -11 79.42 23.72
0 18 11 33.3 18.85
0 -18 -12 30.21 23.68
0 18 12 7.81 18.15
0 -18 -13 -24.65 22.92
0 18 13 27.06 18.67
0 -18 -14 2.37 23.73
0 18 14 -13.37 19.43
0 -18 -15 32.32 24.35
0 18 15 5.27 19.27
0 -18 -16 16.83 24.58
0 18 16 22.71 19.63
1 -18 -17 53.22 25.42
1 18 16 31.59 19.77
1 -18 -16 16.81 24.6
1 18 15 4.26 19.14
1 -18 -15 -1.19 24.59
1 18 14 -6.25 19.09
1 -18 -14 -33.05 24.23
1 18 13 13.21 18.7
1 -18 -13 36.37 24.64
1 18 12 9.93 18.87
1 -18 -12 7.6 25.34
1 -18 -12 37.31 23.84
1 18 11 43.25 19.14
1 -18 -11 38.49 25.41
1 -18 -11 38.15 23.34
1 18 10 34.91 19.41
1 -18 -10 2.44 24.16
1 -18 -10 10.27 23.04
1 18 9 34.53 19.19
1 -18 -9 26.32 24.54
1 -18 -9 32.71 22.51
1 18 8 33.22 19.33
1 -18 -8 29.53 23.3
1 -18 -8 51.34 23.09
1 -18 -7 3.45 23.05
1 -18 -7 28.82 22.63
1 -18 -6 1.14 22.59
1 -18 -6 29.67 22.87
-1 -18 6 35.43 20.99
1 -18 -5 39.25 23.53
1 -18 -5 31.8 21.53
-1 -18 5 22.23 20.84
1 -18 -4 35.18 22.67
1 -18 -4 -5.45 21.5
-1 -18 4 9.1 20.17
1 -18 -3 12.89 21.78
1 -18 -3 48.44 21.61
-1 -18 3 30.54 20.87
1 -18 -2 35.88 22.24
-1 -18 2 3.07 20.72
1 -18 -2 20.28 21.27
-1 -18 1 20.45 20.72
1 -18 -1 97.47 22.69
1 -18 0 40.23 21.32
-1 -18 0 31.91 20.7
1 -18 1 48.75 21.95
-1 -18 -1 50.94 21.32
1 -18 2 -1.05 20.87
-1 -18 -2 13.68 20.76
1 -18 3 32.59 21.9
-1 -18 -3 27.64 21.02
1 -18 4 24.21 21.22
-1 -18 -4 3.2 21.19
-1 18 5 -16.7 17.55
1 -18 5 8.46 20.65
-1 -18 -5 22.67 21.54
-1 18 6 28.91 17.69
1 -18 6 5.32 21.26
-1 -18 -6 10.87 21.57
-1 18 7 24.13 17.19
1 -18 7 26.75 21.08
-1 -18 -7 30.85 22.24
-1 18 8 66.9 18.47
1 -18 8 16.08 21.5
-1 -18 -8 42.49 22.59
-1 -18 -9 25.91 22.76
-1 18 9 29.43 18.39
1 -18 9 22.55 21.82
-1 -18 -10 16.23 23.3
-1 18 10 52.78 18.6
-1 -18 -10 -10.25 22.64
-1 -18 -11 34.44 24.83
-1 18 11 45.87 18.87
-1 -18 -11 29.96 23.87
-1 18 12 -7.7 18.62
-1 -18 -12 19.83 23.65
-1 18 13 -12.85 18.43
-1 -18 -13 25.93 23.12
-1 18 14 -15.26 18.93
-1 -18 -14 7.13 23.86
-1 18 15 27.16 19.62
-1 -18 -15 1.19 23.78
-1 18 16 -33.47 20.16
-1 -18 -16 -7.19 23.91
2 -18 -17 -8.41 24.65
2 18 16 6.59 19.57
2 -18 -16 26.29 25.07
2 18 15 8.61 19.45
2 -18 -15 46.28 25.38
2 18 14 -1.05 18.9
2 -18 -14 20.1 24.44
2 -18 -13 -11.84 26.71
2 18 13 15.46 19.09
2 -18 -13 7.05 24.25
-2 18 -12 31.98 21.9
2 -18 -12 42.49 26.4
2 18 12 24.55 18.86
2 -18 -12 41.87 24.27
-2 18 -11 32.89 21.47
2 18 11 40.46 19.17
2 -18 -11 1.27 25.09
2 -18 -11 -27.59 23.52
2 18 10 -18.04 19.31
2 -18 -10 29.89 24.71
2 -18 -10 2.27 23.43
2 18 9 49.65 19.49
2 -18 -9 66.43 25.07
2 -18 -9 81.42 23.73
2 -18 -8 15.68 23.87
2 -18 -8 -3.36 22.46
2 -18 -7 66.08 24.91
2 -18 -7 50.14 23.38
2 -18 -6 -25.79 23.49
2 -18 -6 34.4 22.44
2 -18 -5 5.77 23.77
2 -18 -5 43.05 23.2
-2 -18 5 41.46 20.73
2 -18 -4 3.4 22.7
2 -18 -4 13.1 21.64
-2 -18 4 7.93 19.88
2 -18 -3 102.84 23.76
2 -18 -3 61.78 23.14
-2 -18 3 90.13 22.23
2 -18 -2 37.2 23.01
2 -18 -2 -5.37 21.49
-2 -18 2 54.2 21.24
-2 -18 1 42.25 20.19
2 -18 -1 37.59 21.44
-2 -18 0 25.47 20.65
2 -18 0 -18.3 20.93
-2 -18 -1 16.49 20.84
2 -18 1 39.74 22.22
-2 -18 -2 54.42 21.37
2 -18 2 32.07 20.9
-2 -18 -3 99.84 22.82
2 -18 3 101.78 23.91
-2 -18 -4 36.07 21.33
2 -18 4 49.44 22.07
-2 -18 -5 59.89 22.23
2 -18 5 7.58 21.3
-2 -18 -6 1.09 21.04
2 -18 6 17.48 21.8
-2 18 6 3.25 16.41
-2 -18 -7 35.31 22.21
2 -18 7 86.31 23.35
-2 18 7 30.78 17.37
-2 -18 -8 43.45 22.21
2 -18 8 6.6 21.46
-2 18 8 19.36 16.92
-2 -18 -9 47.19 22.77
-2 18 9 71.01 18.61
2 -18 9 96.72 23.27
-2 18 10 30.38 17.42
-2 -18 -10 14.81 22.61
-2 18 11 -8.29 17.53
-2 -18 -11 11.52 22.98
-2 18 12 26.56 18.49
-2 -18 -12 36.05 23.56
-2 18 13 -14.67 18.3
-2 -18 -13 44.43 23.88
-2 18 14 14.1 18.91
-2 -18 -14 37.8 23.6
-2 18 15 -1.04 19.34
-2 -18 -15 26.32 24.45
-2 18 16 17.28 19.6
-2 -18 -16 40 24.87
-18 2 -17 -9.05 20.37
3 -18 -17 9.61 25.54
3 18 16 6.66 20.1
3 -18 -16 -1.19 25.61
3 18 15 30.48 19.85
3 -18 -15 10.7 25.17
3 -18 -14 55.7 27.53
3 18 14 14.95 19.33
3 -18 -14 3.53 24.63
-3 18 -13 28.49 22.55
3 -18 -13 46.68 26.87
3 18 13 76.99 20.58
3 -18 -13 46.64 24.71
-3 18 -12 62.7 23.39
3 -18 -12 40.75 26.18
3 18 12 33.66 19.7
3 -18 -12 23.13 24.14
-3 18 -11 21.38 21.72
3 18 11 45.76 19.93
3 -18 -11 23.25 25.85
3 -18 -11 4.6 23.55
3 18 10 54.73 21.03
3 -18 -10 28.07 25.77
3 -18 -10 27.38 23.66
3 -18 -9 47.87 25.7
3 -18 -9 49.89 23.66
3 -18 -8 81.12 25.14
3 -18 -8 -6.75 22.05
3 -18 -7 10.93 24.2
3 -18 -7 33.8 22.83
3 -18 -6 -20.49 23.94
3 -18 -6 64.63 23.31
3 -18 -5 49.76 25.05
3 -18 -5 51.97 22.83
3 -18 -4 68.79 24.36
3 -18 -4 -9.88 22.16
-3 -18 3 14.74 20.32
3 -18 -3 35.16 23.83
3 -18 -3 45.75 22.57
3 -18 -2 52.33 22.67
3 -18 -2 60.97 23.57
-3 -18 2 4.91 19.71
3 -18 -1 18.57 21.81
-3 -18 1 3.98 19.95
3 -18 0 213.8 25.98
-3 -18 0 181.19 23.91
3 -18 1 -11.94 21.79
-3 -18 -1 -26.62 20.61
3 -18 2 51.09 22.18
-3 -18 -2 9.26 20.49
3 -18 3 37.08 21.88
-3 -18 -3 28.1 21.01
3 -18 4 54.92 22.64
-3 -18 -4 19.97 20.85
3 -18 5 39.83 21.85
-3 -18 -5 54.36 21.97
3 -18 6 24.48 22.24
-3 -18 -6 24.97 21.68
3 -18 7 38.01 22.33
-3 -18 -7 -15.37 21.17
-3 -18 -8 43.25 21.71
3 -18 8 13.44 21.7
-3 -18 -9 37.08 22.06
3 -18 9 30.38 22.34
-3 18 9 -3.4 17.17
-3 18 10 6.16 17.47
-3 -18 -10 33.06 22.69
-3 18 11 37.25 18.24
-3 -18 -11 29.82 22.6
-3 18 12 18.75 18.66
-3 -18 -12 30.01 23.8
-3 18 13 8.72 18.74
-3 -18 -13 31.71 23.48
-3 18 14 52.41 20.1
-3 -18 -14 2.38 23.18
-3 18 15 20.95 19.99
-3 -18 -15 7.25 23.76
-3 -18 -16 31.83 24.45
-18 3 -16 -13.05 19.3
-18 3 -17 26.77 20.26
4 -18 -16 -1.19 24.98
4 -18 -15 -8.38 27.79
4 18 15 12.1 19.6
4 -18 -15 15.3 24.67
-4 18 -14 -1.18 22.32
4 -18 -14 26.11 27.27
4 18 14 28.17 19.95
4 -18 -14 16.36 25.03
-4 18 -13 15.21 22.63
4 -18 -13 23.07 27.23
4 18 13 13.04 20.39
4 -18 -13 36.06 25.11
-4 18 -12 103.24 24.26
4 -18 -12 94.77 28.5
4 18 12 139.59 22.52
4 -18 -12 126.21 27.07
-4 18 -11 70.65 22.86
4 -18 -11 39.54 26.43
4 18 11 67.53 20.69
4 -18 -11 68.98 24.74
-4 18 -10 54.06 22.28
4 18 10 21.19 20.05
4 -18 -10 14.89 23.39
4 -18 -10 28.74 26.54
4 -18 -9 18.27 23.53
4 -18 -9 39.65 25.19
4 -18 -8 65.98 23.87
4 -18 -8 86.71 26.51
4 -18 -7 37.12 22.99
4 -18 -7 -17.51 24.9
4 -18 -6 -1.12 22.19
4 -18 -6 6.18 24.02
4 -18 -5 13.33 21.94
4 -18 -5 29.17 24.45
4 -18 -4 109.28 23.9
4 -18 -4 94.18 25.42
4 -18 -3 3.32 21.59
4 -18 -3 49.27 24.3
4 -18 -2 76.38 23.42
4 -18 -1 67.51 24.04
-4 -18 1 66.61 21.03
4 -18 0 3.3 21.59
-4 -18 0 41.81 20.8
4 -18 1 83.8 23.45
-4 -18 -1 102.03 21.87
4 -18 2 43.12 22.5
-4 -18 -2 31.53 20.83
4 -18 3 57.9 23.05
-4 -18 -3 18.54 20.89
4 -18 4 79.64 23.47
-4 -18 -4 150.43 23.84
4 -18 5 -19.22 21.86
-4 -18 -5 24.5 21.17
4 -18 6 20.39 22.33
-4 -18 -6 35.57 21.96
4 -18 7 21.71 22.45
-4 -18 -7 10.9 21.44
-4 -18 -8 89.72 23.38
4 -18 8 86.87 23.76
-4 -18 -9 23.63 22.39
-4 -18 -10 32.89 22.92
-4 18 11 -8.97 18.14
-4 -18 -11 36.58 23.06
-4 18 12 106.38 20.54
-4 -18 -12 84.96 24.6
-4 18 13 19.47 19.41
-4 -18 -13 54.47 24.42
-4 18 14 13.09 18.99
-4 -18 -14 52.89 24.82
-4 -18 -15 40.21 24.21
-18 4 -16 -22.84 19.22
-5 18 -16 -4.87 22.85
-5 18 -15 3.62 22.65
5 -18 -15 -38 28.53
5 18 15 67.86 20.72
5 -18 -15 69.41 24.36
-5 18 -14 37.54 23.37
5 -18 -14 11.15 27.18
5 18 14 45.74 20.43
5 -18 -14 -1.17 23.93
-5 18 -13 20.35 22.81
5 -18 -13 -31.58 27.19
5 18 13 32.06 20.46
5 -18 -13 37.28 25.46
-5 18 -12 59.65 24
5 -18 -12 112.7 28.29
5 18 12 80.67 21.86
5 -18 -12 111.29 25.99
-5 18 -11 67.8 23.04
5 -18 -11 13.48 26.76
5 18 11 6.59 20.27
5 -18 -11 28.96 24.58
5 -18 -10 18.52 25.94
-5 18 -10 19.91 21.54
5 -18 -10 38.09 24.87
5 -18 -9 19.51 26.01
-5 18 -9 -10.52 20.94
5 -18 -9 10.3 23.78
5 -18 -8 -7.95 23.56
5 -18 -8 -5.16 25.59
5 -18 -7 21.45 23.31
5 -18 -7 81.99 26.61
5 -18 -6 10.09 22.49
5 -18 -6 6.3 24.99
5 -18 -5 -11.17 22.57
5 -18 -5 4.97 24.51
5 -18 -4 42.58 23.13
5 -18 -4 14.54 24.06
5 -18 -3 -26.94 22.61
5 -18 -3 60.4 24.73
5 -18 -2 48.14 23.34
5 -18 -1 39.05 22.91
5 -18 0 36.87 22.46
-5 -18 -1 13.89 19.81
5 -18 1 21.3 22.05
-5 -18 -2 1.01 20.51
5 -18 2 36.07 22.44
-5 -18 -3 20.42 20.85
5 -18 3 4.54 22.31
-5 -18 -4 40.57 21
5 -18 4 30.95 22.71
-5 -18 -5 32.79 20.95
5 -18 5 24.12 22.61
-5 -18 -6 -2.14 21.21
5 -18 6 9.27 22.68
5 -18 7 41.77 23.22
-5 -18 -7 63.16 23.05
-5 -18 -8 15.48 21.52
-5 -18 -9 -18.99 21.92
-5 -18 -10 28.19 21.96
-5 -18 -11 -21.84 22.84
-5 -18 -12 63.23 23.82
-5 -18 -13 32.2 23.88
-5 -18 -14 41.04 23.68
-18 5 -15 3.22 19.15
-5 -18 -15 29.37 24.11
-18 5 -16 25.15 19.54
-6 18 -15 35.94 23.41
-6 18 -14 1.24 23
6 -18 -14 54.92 29.18
6 18 14 27.26 20.61
6 18 13 47.59 20.51
6 -18 -13 73.86 28.9
6 -18 -13 127.89 25.83
-6 18 -12 68.05 23.91
6 18 12 45.26 21.18
6 -18 -12 53.71 25.26
6 -18 -11 4.09 27.09
-6 18 -11 31.6 22.58
6 -18 -11 -11.58 24.64
6 -18 -10 -4.01 26.29
-6 18 -10 31.09 21.85
6 -18 -10 37.98 24.67
6 -18 -9 17.32 26.88
-6 18 -9 46.17 21.84
6 -18 -9 24.04 24.51
6 -18 -8 66.1 27.17
6 -18 -8 -1.14 23.84
6 -18 -7 -9.12 25.78
6 -18 -7 19.26 23.69
6 -18 -6 -3.86 25.1
6 -18 -6 20.42 23.67
6 -18 -5 39.19 25.69
6 -18 -5 21.57 23.26
6 -18 -4 8.72 24.27
6 -18 -4 27.23 22.92
6 -18 -3 50.96 23.64
6 -18 -2 33.88 22.75
6 -18 -1 35.07 23.23
6 -18 0 17.02 22.83
6 -18 1 1.14 22.41
6 -18 2 32.19 23.18
6 -18 3 26.7 23.08
-6 -18 -3 12.15 20.49
6 -18 4 25.61 22.92
-6 -18 -4 40.39 21.43
6 -18 5 8.2 22.73
-6 -18 -5 47.21 21.89
6 -18 6 -8.24 22.58
-6 -18 -6 -1.07 21.01
6 -18 7 1.18 23
-6 -18 -7 5.43 21.07
-6 -18 -8 23.15 21.5
-6 -18 -9 23.29 22.11
-6 -18 -10 47.59 23.08
-6 -18 -11 25.42 22.7
-6 -18 -12 27.05 23.26
-6 -18 -13 8.37 23.3
-6 -18 -14 4.84 23.04
-18 6 -15 33.69 19.37
7 18 14 20.73 20.19
-7 18 -14 -6.26 23.1
-7 18 -13 1.25 23.08
7 18 13 27.68 21.23
7 -18 -13 -5.67 28.94
-7 18 -12 12.34 22.37
7 -18 -12 23.71 27.98
7 18 12 5.75 20.58
7 -18 -11 -21.96 28.28
-7 18 -11 -6.11 22.21
7 -18 -11 35.87 25.35
7 -18 -10 20.45 27.28
-7 18 -10 4.89 22.6
7 -18 -10 5.76 24.79
7 -18 -9 -10.85 27.34
-7 18 -9 68.31 22.3
7 -18 -9 24.09 24.22
7 -18 -8 21.76 24.14
-7 18 -8 22.58 20.94
7 -18 -8 -8.05 26.71
7 -18 -7 38.44 26.13
7 -18 -7 41.31 24.64
7 -18 -6 24.83 25.94
7 -18 -6 -1.15 23.56
7 -18 -5 24.27 25.92
7 -18 -5 29.85 24.03
7 -18 -4 42.07 25.2
7 -18 -4 28.57 23.82
7 -18 -3 2.29 23.36
7 -18 -2 30.91 23.59
7 -18 -1 41.36 23.94
7 -18 0 24.29 23.71
7 -18 1 61.71 24.49
7 -18 2 43.49 24.01
7 -18 3 -1.18 22.98
7 -18 4 10.66 23.2
7 -18 5 9.54 23.34
-7 -18 -5 18.71 20.66
7 -18 6 19.12 24.21
-7 -18 -6 10.61 21.67
-7 -18 -7 67.03 22.88
-7 -18 -8 -2.18 21.78
-7 -18 -9 92.21 23.74
-7 -18 -10 -14.78 22.41
-7 -18 -11 -6.95 23
-7 -18 -12 -5.88 22.69
-7 -18 -13 14.36 23.17
-7 -18 -14 3.65 23.22
-18 7 -15 17.63 19.65
8 18 13 1.17 20.17
-8 18 -13 25.26 23.23
8 -18 -12 70.25 29.13
-8 18 -12 8.78 22.44
8 -18 -11 16.74 28.24
-8 18 -11 -13.6 22.16
8 -18 -10 5.56 27.95
-8 18 -10 33.27 23.09
8 -18 -10 8.09 24.76
8 -18 -9 -5.51 28.29
-8 18 -9 28.06 22.4
8 -18 -9 25.51 24.88
8 -18 -8 36.71 28.46
-8 18 -8 70.62 22.97
8 -18 -8 94.05 26.28
8 -18 -7 56.43 27.73
-8 18 -7 24.95 21.48
8 -18 -7 24.36 24.41
8 -18 -6 15.04 24.3
8 -18 -6 2.64 26.43
8 -18 -5 38.11 24.98
8 -18 -5 48.42 27.05
8 -18 -4 -2.31 24.56
8 -18 -3 35.92 24.3
8 -18 -2 25.6 24.26
8 -18 -1 21.07 23.61
8 -18 0 91.91 25.6
8 -18 1 41.58 24.44
8 -18 2 34.55 25.06
8 -18 3 23.98 24.4
8 -18 4 14.47 23.79
8 -18 5 27.78 24.36
-8 -18 -7 4.28 21.78
-8 -18 -8 53.18 22.7
-8 -18 -9 4.45 21.86
-8 -18 -10 6.83 22.52
-8 -18 -11 -11.6 22.24
-8 -18 -12 14.14 22.76
-8 -18 -13 28.81 23.59
-18 8 -14 12.81 18.72
9 -18 -11 45.45 29.94
-9 18 -11 10.03 22.68
9 -18 -10 -8.43 28.52
-9 18 -10 4.94 21.84
9 -18 -9 15.28 27.92
-9 18 -9 -18.41 22.12
9 -18 -8 13.74 26.78
9 -18 -8 8.17 24.96
-9 18 -8 25.49 21.72
9 -18 -7 9.45 27.22
9 -18 -7 31.48 26.2
-9 18 -7 2.38 21.22
9 -18 -6 -29.42 27.18
9 -18 -6 -21 24.87
-9 18 -6 4.72 20.71
9 -18 -5 24.55 24.94
9 -18 -4 7.04 24.55
9 -18 -3 67.18 25.81
9 -18 -2 86.54 25.68
9 -18 -1 25.05 24.96
9 -18 0 45.6 25.3
9 -18 1 16.84 24.3
9 -18 2 71.57 25.44
9 -18 3 62.11 25.85
9 -18 4 -10.99 24.28
-9 -18 -9 8.89 22.24
-9 -18 -10 37.54 22.25
-9 -18 -11 33.6 23.23
-9 -18 -12 36.57 23.43
10 -18 -10 -8.49 28.68
-10 18 -10 31.07 22.56
10 -18 -9 1.4 28.2
-10 18 -9 -6.14 21.69
10 -18 -8 1.38 28.2
-10 18 -8 -6.11 21.41
10 -18 -7 47.77 28.02
-10 18 -7 2.4 21.03
10 -18 -6 70.55 28.31
10 -18 -6 36.64 25.79
-10 18 -6 18.85 20.5
10 -18 -5 75.95 26.43
-10 18 -5 4.67 20.3
10 -18 -4 35.78 25.95
10 -18 -3 22.8 25.43
10 -18 -2 49.58 25.63
10 -18 -1 8.49 25.02
10 -18 0 46.19 25.86
10 -18 1 19.62 25.19
10 -18 2 33.15 25.64
10 -18 3 6.16 24.97
-10 -18 -12 17.73 23.19
11 -18 -8 63.8 30.16
-11 18 -8 7.28 21.09
11 -18 -7 -6.9 27.88
-11 18 -7 -28.97 21.78
-11 18 -6 18.98 20.24
-11 18 -5 74.28 21.57
-11 18 -4 -28.68 20.46
11 -18 -4 15.79 26.11
11 -18 -3 74.42 27.08
11 -18 -2 -3.67 25.88
11 -18 -1 6.15 25.77
11 -18 0 33.41 26.06
11 -18 1 24.78 25.94
-12 18 -6 7.09 20.39
-12 18 -5 19.88 20.25
-12 18 -4 47.91 20.59
-12 18 -3 21.35 19.66
12 -18 -2 8.7 27.22
12 -18 -1 3.73 26.42
12 -18 0 -9.99 26.48
-13 18 -3 -10.07 19.11
-13 18 -2 -4.38 18.91
-13 18 -1 47.58 19.39
0 -19 0 -22.09 22.01
0 -19 1 15.48 21.59
0 -19 -1 44.23 22.24
0 -19 2 47.25 22.43
0 -19 -2 33.47 21.89
0 -19 3 37.14 22.5
0 -19 -3 3.38 22.18
0 -19 4 12 21.16
0 -19 -4 21.67 22.34
0 -19 5 -27.31 22.1
0 -19 -5 -12.64 22.51
0 19 6 14.86 18.07
0 -19 6 41.68 22.15
0 -19 -6 -12.7 22.88
0 19 7 45.15 18.89
0 -19 7 15.43 21.95
0 -19 -7 19.77 23.3
0 19 8 26.6 19.05
0 -19 -8 26.95 23.45
0 -19 -8 1.18 23.95
0 19 9 53.17 19.65
0 -19 -9 38.92 24.17
0 -19 -9 1.22 24.89
0 19 10 15.52 18.28
0 -19 -10 -39.4 24.64
0 -19 -10 -23.45 24.88
0 19 11 15.84 18.68
0 -19 -11 9.67 23.76
0 -19 -11 3.77 25.34
0 19 12 34.48 19.26
0 -19 -12 -17.03 24.04
0 -19 -12 -14.07 25.42
0 19 13 18.71 19.41
0 -19 -13 1.23 24.64
0 -19 -13 -5.22 26.31
0 -19 -14 25.89 24.89
0 19 14 28.67 19.7
1 19 14 7.54 19.55
1 -19 -14 -13.56 25.31
1 -19 -14 4.06 26.64
1 19 13 1.05 19.13
1 -19 -13 11.03 24.89
1 -19 -13 -10.61 26.15
1 19 12 27.85 19.28
1 -19 -12 1.31 26.44
1 19 11 32.57 19.77
1 -19 -11 33.65 24.53
1 -19 -11 -3.86 25.46
1 19 10 30.35 19.76
1 -19 -10 27.38 24.02
1 -19 -10 -26.67 25.83
1 19 9 52.78 19.72
1 -19 -9 46.2 23.96
1 -19 -9 24.94 25.45
1 19 8 13.83 19.2
1 -19 -8 -12.92 23.17
1 -19 -8 -9.74 24.26
1 19 7 70.33 20.78
1 -19 -7 67.4 25.16
1 -19 -7 68.85 24.46
1 -19 -6 9.51 23.67
-1 -19 6 50.29 22.17
1 -19 -6 26.74 23.14
1 -19 -5 69.91 24.65
-1 -19 5 37.38 21.78
1 -19 -5 16.19 23.07
1 -19 -4 -4.57 23.16
-1 -19 4 63.11 22.26
1 -19 -4 1.14 22.06
1 -19 -3 26.81 22.96
1 -19 -3 -21.54 21.94
-1 -19 3 21.48 21.28
1 -19 -2 22.48 21.83
-1 -19 2 24.9 21.16
1 -19 -1 26.95 22.31
-1 -19 1 42.35 22.06
-1 -19 0 21.74 21.41
1 -19 0 22.48 22.35
-1 -19 -1 75.68 22.77
1 -19 1 48.17 22.74
-1 -19 -2 16.61 21.91
1 -19 2 5.56 21.61
-1 -19 -3 -29.14 21.77
1 -19 3 24.46 21.82
-1 -19 -4 4.53 22.09
1 -19 4 43.37 22.56
-1 -19 -5 31.88 22.31
1 -19 5 43.6 22.98
-1 -19 -6 -3.44 22.61
1 -19 6 43.85 23.08
-1 19 6 16 17.66
-1 -19 -7 71.6 23.6
1 -19 7 72.02 23.54
-1 19 7 63.04 19.15
-1 -19 -8 1.17 22.85
1 -19 8 1.13 22.64
-1 19 8 -4.59 18.09
1 -19 9 60.82 23.55
-1 -19 -9 42.61 24.03
-1 19 9 37.92 19.06
-1 -19 -10 15.55 23.39
-1 19 10 5.68 18.3
-1 -19 -11 -16.89 24.74
-1 19 11 11.68 18.35
-1 -19 -12 78.94 25.68
-1 19 12 29.95 19.73
-1 -19 -13 13.47 24.57
-1 19 13 3.07 19.14
-1 -19 -14 16.09 24.85
-1 19 14 8.39 19.62
-1 19 15 12.91 20.11
2 19 14 4.37 19.53
2 -19 -14 47.86 26.23
2 -19 -14 63.12 28.26
2 19 13 20.34 19.65
2 -19 -13 3.65 24.31
2 -19 -13 33.89 26.54
2 19 12 28.56 19.97
2 -19 -12 14.67 26.3
2 -19 -12 32.62 25.22
-2 19 -11 48.27 22.85
2 -19 -11 -19.69 26.31
2 19 11 45.28 20.56
2 -19 -11 64.89 25.16
2 -19 -10 9.1 25.62
2 19 10 20.78 19.55
2 -19 -10 38.2 24.47
2 -19 -9 53.24 26.12
2 19 9 -8.26 18.99
2 -19 -9 16.59 24.08
2 -19 -8 47.43 25.69
2 19 8 15.33 19.9
2 -19 -8 36.54 23.56
2 -19 -7 -16.14 25.25
2 -19 -7 38.94 23.93
2 -19 -6 63.52 25.61
2 -19 -6 115.59 25.47
2 -19 -5 49.22 24.52
2 -19 -5 34.71 22.52
2 -19 -4 42.31 24.99
2 -19 -4 76.96 23.78
-2 -19 4 12.58 20.89
2 -19 -3 -35.85 24.56
-2 -19 3 1.06 21.01
-2 -19 2 24.5 21.15
2 -19 -2 4.54 21.7
2 -19 -1 26.2 22.72
-2 -19 1 -6.39 21.14
2 -19 0 -13.64 21.8
-2 -19 0 21.46 21.25
2 -19 1 30.53 22.38
-2 -19 -1 4.35 21.67
2 -19 2 29.37 22.68
-2 -19 -2 6.6 21.64
2 -19 3 1.13 21.78
-2 -19 -3 18.98 21.68
2 -19 4 48.8 22.49
-2 -19 -4 3.36 21.78
2 -19 5 44.55 22.98
-2 -19 -5 -3.39 21.81
2 -19 6 98.79 24.43
-2 -19 -6 101.36 24.29
2 -19 7 12.62 22.71
-2 -19 -7 25.36 23.7
2 -19 8 49.61 23.84
-2 -19 -8 47.92 23.67
-2 19 8 24.6 17.87
-2 -19 -9 8.29 23.52
-2 19 9 8.14 18.11
2 -19 9 5.75 23
-2 19 10 68.76 19.25
-2 -19 -10 45.28 24
-2 19 11 47.77 18.86
-2 -19 -11 19.25 23.81
-2 19 12 27.52 18.84
-2 -19 -12 -13.38 23.79
-2 19 13 23.2 19.28
-2 -19 -13 -3.69 24.85
-2 -19 -14 12.43 24.78
-2 19 14 19.76 19.66
-2 19 15 -6.43 20.07
3 19 14 52 20.95
3 -19 -14 -9.74 25.41
3 -19 -14 36.32 27.8
3 19 13 19.6 19.66
3 -19 -13 16.51 26.74
3 -19 -13 59.51 25.81
-3 19 -12 44.13 23.39
3 19 12 8.74 20.25
3 -19 -12 -6.8 27.3
3 -19 -12 -33.86 24.73
-3 19 -11 18.89 22.65
3 -19 -11 -2.69 26.27
3 19 11 18.35 19.97
3 -19 -11 18.04 24.71
3 -19 -10 -15.88 26.84
3 19 10 25.8 20.26
3 -19 -10 26.31 23.99
3 -19 -9 62.27 26.62
3 19 9 29.83 20.28
3 -19 -9 13.08 24.41
3 -19 -8 16.73 25.51
3 -19 -8 49.97 24.23
3 -19 -7 15.29 25.61
3 -19 -7 58.91 24.52
3 -19 -6 5.01 24.94
3 -19 -6 52.62 23.82
3 -19 -5 55.51 26.05
3 -19 -5 88.27 24.67
3 -19 -4 25.19 24.27
3 -19 -4 48.47 23.43
3 -19 -3 77.07 24.32
3 -19 -3 47.73 24.89
3 -19 -2 2.31 22.36
-3 -19 2 73.08 21.85
3 -19 -1 35.73 22.7
-3 -19 1 45.07 21.48
3 -19 0 83.81 24.25
-3 -19 0 115.7 23.37
3 -19 1 34.37 22.39
-3 -19 -1 44.04 21.8
3 -19 2 73.43 23.28
-3 -19 -2 25.15 22.21
3 -19 3 40.31 22.83
-3 -19 -3 21.96 21.77
3 -19 4 64.87 23.05
-3 -19 -4 -16.63 21.8
3 -19 5 60.6 23.59
-3 -19 -5 24.69 22.29
3 -19 6 22.19 23.47
-3 -19 -6 -21.58 22.25
3 -19 7 31.71 23.35
-3 -19 -7 11.54 22.12
-3 -19 -8 24.56 22.84
3 -19 8 10.57 23.52
-3 -19 -9 30.66 22.99
-3 -19 -10 30.99 23.93
-3 19 11 2.82 18.07
-3 -19 -11 31.32 24.06
-3 19 12 40.71 19.44
-3 -19 -12 6.09 24.03
-3 19 13 15.02 19.26
-3 -19 -13 -18.49 23.98
-3 19 14 10.35 19.51
-3 -19 -14 -8.68 24.46
-3 19 15 6.44 20.14
4 -19 -14 3.65 25.74
-4 19 -13 29.29 23.88
4 19 13 1.12 20.05
4 -19 -13 25.13 27.96
4 -19 -13 8.49 25.46
-4 19 -12 -18.42 22.92
4 19 12 28.98 20.68
4 -19 -12 -24.97 27.76
4 -19 -12 58.01 25.78
-4 19 -11 30.36 23.01
4 19 11 2.23 20.33
4 -19 -11 -10.95 26.71
4 -19 -11 32.51 24.77
-4 19 -10 8.47 23.23
4 -19 -10 4.02 26.55
4 19 10 60.86 20.94
4 -19 -10 -9.65 25.34
4 -19 -9 32.29 25.04
4 -19 -9 -2.66 26.21
4 -19 -8 2.37 23.69
4 -19 -8 -5.28 26.06
4 -19 -7 4.72 23.95
4 -19 -7 -5.21 25.8
4 -19 -6 18.77 23.33
4 -19 -6 2.56 26.12
4 -19 -5 26.84 24.43
4 -19 -5 42.89 25.31
4 -19 -4 8.16 22.54
4 -19 -4 37.02 25.15
4 -19 -3 26.85 23.23
4 -19 -3 33.11 24.96
4 -19 -2 56.02 23.72
4 -19 -1 38.35 23.07
-4 -19 0 15.72 20.91
4 -19 0 39.46 22.86
-4 -19 -1 42.59 21.81
4 -19 1 -10.46 22.28
-4 -19 -2 12.9 21.13
4 -19 2 44.33 23.08
-4 -19 -3 5.44 21.36
4 -19 3 48.11 23.98
-4 -19 -4 26.44 22.11
4 -19 4 -5.9 22.79
-4 -19 -5 37.84 22.66
4 -19 5 47.46 23.68
-4 -19 -6 10.2 22.97
4 -19 6 40.45 24.03
-4 -19 -7 20.71 22.76
4 -19 7 -8.38 23.27
-4 -19 -8 17.42 23.04
4 -19 8 15.54 23.76
-4 -19 -9 -1.18 22.91
-4 -19 -10 27.39 23.54
-4 -19 -11 2.41 23.61
-4 -19 -12 -8.53 23.76
-4 -19 -13 -3.67 24.18
-5 19 -14 46.57 24.68
5 -19 -14 36.47 25.98
-5 19 -13 27.45 23.75
5 19 13 9.17 20.76
5 -19 -13 42.72 28.59
5 -19 -13 18.27 25.71
-5 19 -12 -3.74 22.89
5 19 12 50.37 21.07
5 -19 -12 32.41 28.49
5 -19 -12 19.45 25.63
-5 19 -11 17.46 23.5
5 19 11 -25.14 21.16
5 -19 -11 -42.76 28.67
5 -19 -11 7.26 25.04
5 -19 -10 -23.18 26.91
-5 19 -10 2.46 22.36
5 -19 -10 52.77 25.02
5 -19 -9 34.02 26.89
-5 19 -9 13.54 22.94
5 -19 -9 81.21 26.12
5 -19 -8 21.38 24
5 -19 -8 -9.43 26.73
5 -19 -7 -15.35 24.14
5 -19 -7 -14.59 26.4
5 -19 -6 10.59 23.35
5 -19 -6 1.31 26.17
5 -19 -5 77.87 25.08
5 -19 -5 101.22 27.13
5 -19 -4 9.45 23.67
5 -19 -4 17.77 25.55
5 -19 -3 15.33 24.07
5 -19 -2 14.1 23.56
5 -19 -1 5.87 23.53
5 -19 0 -3.53 23.02
5 -19 1 23.62 23.36
-5 -19 -2 3.19 20.92
5 -19 2 5.94 23.32
-5 -19 -3 21.52 22.03
5 -19 3 57.4 24.61
-5 -19 -4 16.38 22.16
5 -19 4 43.28 23.86
-5 -19 -5 60.96 23.31
5 -19 5 50.59 24.25
-5 -19 -6 -5.65 22.41
5 -19 6 -13.36 23.51
-5 -19 -7 12.59 22.58
5 -19 7 -9.71 23.63
-5 -19 -8 -4.63 22.49
-5 -19 -9 1.17 23.13
-5 -19 -10 -1.19 22.79
-5 -19 -11 -10.85 23.52
-5 -19 -12 10.92 23.45
-5 -19 -13 9.81 23.49
-6 19 -13 10.23 23.15
6 -19 -13 8.49 25.73
-6 19 -12 24.11 23.76
6 19 12 -12.85 20.97
6 -19 -12 -7.24 25.59
-6 19 -11 35.65 23.7
6 19 11 2.33 21.04
6 -19 -11 44.82 28.31
6 -19 -11 7.22 25.55
6 -19 -10 4.18 27.56
6 -19 -10 52.74 25.77
6 -19 -9 42.93 28.58
-6 19 -9 -2.49 22.61
6 -19 -9 5.97 24.52
6 -19 -8 26.18 25.21
6 -19 -8 8.2 27.12
6 -19 -7 2.38 24.73
6 -19 -7 5.4 26.59
6 -19 -6 10.72 24.4
6 -19 -6 46.49 26.61
6 -19 -5 -8.36 24.1
6 -19 -5 6.53 25.2
6 -19 -4 46.48 24.35
6 -19 -4 -9.1 25.4
6 -19 -3 7.12 23.95
6 -19 -2 -8.31 24.03
6 -19 -1 -4.76 23.83
6 -19 0 -14.33 23.51
6 -19 1 -1.2 23.62
6 -19 2 -3.63 24.22
6 -19 3 -24.36 24.09
-6 -19 -4 -10.81 21.41
6 -19 4 13.4 23.79
-6 -19 -5 19.86 22.49
6 -19 5 -19.65 24.57
-6 -19 -6 3.37 22.36
6 -19 6 33.21 24.49
-6 -19 -7 54.56 22.56
6 -19 7 -13.56 24.11
-6 -19 -8 23.08 22.66
-6 -19 -9 25.76 23.81
-6 -19 -10 -14.25 23.08
-6 -19 -11 -26.34 23.48
-6 -19 -12 46.06 23.21
7 -19 -11 -9.99 28.85
-7 19 -11 14.08 23.51
7 -19 -11 34.82 26.01
7 -19 -10 8.52 28.02
-7 19 -10 -2.56 23.34
7 -19 -10 8.39 25.05
7 -19 -9 -11.23 28.01
7 -19 -9 22.76 25.65
-7 19 -9 26.46 22.87
7 -19 -8 -34.69 27.83
7 -19 -8 -13.22 24.74
-7 19 -8 38.81 22.58
7 -19 -7 -9.58 26.71
7 -19 -7 3.61 24.52
7 -19 -6 -2.68 25.93
7 -19 -6 61.33 26.06
7 -19 -5 1.34 26.23
7 -19 -5 16.79 24.99
7 -19 -4 41.93 25.27
7 -19 -3 33.59 24.45
7 -19 -2 -2.4 24.14
7 -19 -1 93.02 26.01
7 -19 0 75.24 25.45
7 -19 1 62.33 24.99
7 -19 2 -2.46 24.89
7 -19 3 40.66 24.25
7 -19 4 9.92 24.41
7 -19 5 -2.49 24.18
-7 -19 -6 5.55 22.24
7 -19 6 13.71 24.21
-7 -19 -7 20.32 22.56
-7 -19 -8 -8.04 22.27
-7 -19 -9 18.62 23.05
-7 -19 -10 -1.18 23.12
-7 -19 -11 10.73 23.1
-7 -19 -12 65.66 24.59
8 -19 -10 -22.93 29.03
8 -19 -10 24.17 26.43
-8 19 -10 -15.48 23.29
8 -19 -9 5.68 28.46
8 -19 -9 -13.32 25.6
-8 19 -9 43.53 23.78
8 -19 -8 14.03 27.57
8 -19 -8 13.32 25.37
-8 19 -8 6.29 21.96
8 -19 -7 4.13 27.86
8 -19 -7 49.59 25.92
-8 19 -7 7.52 22.41
8 -19 -6 26.56 25.36
8 -19 -6 17.8 27.81
8 -19 -5 18.12 24.56
8 -19 -4 19.37 25.29
8 -19 -3 12.14 24.84
8 -19 -2 62.22 25.68
8 -19 -1 23.32 24.95
8 -19 0 23.46 25.61
8 -19 1 3.72 24.85
8 -19 2 14.93 24.7
8 -19 3 6.26 24.75
8 -19 4 -42.66 25.1
8 -19 5 40.31 25.78
-8 -19 -8 9.16 22.57
-8 -19 -9 22 23.1
-8 -19 -10 36.29 22.81
-8 -19 -11 39.4 23.41
9 -19 -8 11.25 28.65
9 -19 -8 64.33 27.02
-9 19 -8 49.71 23.25
9 -19 -7 22.32 28.72
9 -19 -7 21.86 26.23
-9 19 -7 -3.76 22.2
9 -19 -6 2.78 27.88
-9 19 -6 14.93 21.89
9 -19 -6 -8.52 25.39
9 -19 -5 40.27 26.29
9 -19 -4 35.52 25.9
9 -19 -3 14.77 25.49
9 -19 -2 -9.91 26.03
9 -19 -1 -33.66 26.06
9 -19 0 7.51 25.04
9 -19 1 71.53 27.31
9 -19 2 -8.85 25.22
9 -19 3 15.19 26.09
9 -19 4 39.36 25.44
-10 19 -6 52 22.21
10 -19 -6 22.16 26.87
-10 19 -5 12.3 21.3
10 -19 -5 42.07 27
10 -19 -4 65.91 27.9
10 -19 -3 48.78 27
10 -19 -2 18.88 26.7
10 -19 -1 27.73 25.7
10 -19 0 -2.53 26.54
10 -19 1 -3.83 26.14
10 -19 2 -11.47 26.16
10 -19 3 24.31 25.91
-11 19 -4 20.52 21.09
11 -19 -4 17.68 27.85
11 -19 -3 40.51 27.76
11 -19 -2 3.8 26.76
11 -19 -1 28.12 27.01
11 -19 0 34.6 26.83
11 -19 1 17.96 26.88
12 -19 -2 7.71 26.89
12 -19 -1 -28.27 27.24
12 -19 0 10.32 27.4
0 -20 0 8.16 23.11
0 -20 -1 25.7 23.05
0 -20 1 -1.16 22.8
0 -20 2 -18.43 22.93
0 -20 -2 14.04 22.87
0 -20 3 22.97 22.44
0 -20 -3 20.07 23.63
0 -20 4 4.59 23.13
0 -20 -4 3.57 22.65
0 -20 5 -37.89 23.71
0 -20 -5 55.36 24.3
0 20 6 49.3 20.27
0 -20 6 69.13 23.53
0 -20 -6 33.94 24.51
0 -20 -7 17.05 24.13
0 20 7 -12.68 19.53
0 -20 -8 -15.93 24.45
0 20 8 0.99 19.01
0 -20 -9 27.11 24.98
0 20 9 18.98 18.97
0 -20 -10 60.79 25.41
0 20 10 -7.04 19.32
0 -20 -11 -3.75 24.29
0 20 11 14.4 19.45
0 -20 -12 28.99 25.09
0 20 12 -3.15 19.52
1 -20 -13 4.09 26.93
1 20 12 23.48 20.25
1 -20 -12 7.53 25.29
1 -20 -12 6.74 26.31
1 20 11 31.47 19.93
1 -20 -11 6.25 24.45
1 -20 -11 -38.64 27.54
1 20 10 -2.1 19.7
1 -20 -10 -28.59 27.31
1 20 9 29.97 20.1
1 -20 -9 39.56 25.34
1 -20 -9 30.7 26.06
1 20 8 -5.13 18.95
1 -20 -8 -17.2 25.09
1 -20 -8 -1.27 25.61
1 20 7 40.77 20.28
1 -20 -7 73.77 25.37
1 -20 -6 40.17 24.67
-1 -20 5 40.44 23.44
1 -20 -5 57.91 24.71
-1 -20 4 18 22.66
1 -20 -4 -15.56 22.85
-1 -20 3 3.39 22.77
1 -20 -3 11.87 23.36
-1 -20 2 11.37 22.75
1 -20 -2 41.37 23.64
1 -20 -1 23.69 23.27
-1 -20 1 -16.05 22.57
-1 -20 0 12.63 22.68
1 -20 0 7.08 22.85
1 -20 1 21.12 23.55
-1 -20 -1 -9.21 23.12
1 -20 2 28.04 22.95
-1 -20 -2 47.63 23.41
1 -20 3 28.04 23.35
-1 -20 -3 51.62 24.17
1 -20 4 57.34 24.07
-1 -20 -4 -1.19 22.58
1 -20 5 32.89 23.05
-1 -20 -5 13.22 23.93
1 -20 6 -2.36 23.21
-1 -20 -6 43.24 24.38
1 -20 7 30.56 24.27
-1 -20 -7 36.38 24.25
-1 20 8 5.68 18.55
1 -20 8 7.07 22.98
-1 -20 -8 -3.67 23.82
-1 -20 -9 31.93 24.22
-1 20 9 -32.67 19.35
-1 -20 -10 58.34 24.82
-1 20 10 21.66 19.31
-1 -20 -11 18.83 24.99
-1 20 11 9.07 19.57
-1 -20 -12 -13.95 25.69
-1 20 12 23.71 20.21
-1 20 13 13.72 19.76
2 20 12 51.17 20.88
2 -20 -12 38.98 26.2
2 -20 -12 8.26 26.88
2 20 11 2.18 19.79
2 -20 -11 -27.52 25.55
2 -20 -11 17.65 27.32
2 20 10 2.15 19.93
2 -20 -10 48.56 25.04
2 -20 -10 -35.87 26.4
2 20 9 26.78 20.32
2 -20 -9 3.72 25.06
2 -20 -9 -11.83 26.31
2 20 8 26.66 20.69
2 -20 -8 -1.24 24.27
2 -20 -8 -5.22 25.77
2 -20 -7 35.61 25.37
2 -20 -7 41.06 26.17
2 -20 -6 7.31 24.98
2 -20 -6 -37.88 26.19
2 -20 -5 -16.94 24.52
2 -20 -5 6.18 24.74
2 -20 -4 37.22 24.08
2 -20 -4 13.36 25.12
2 -20 -3 4.79 22.93
-2 -20 3 12.18 22.18
-2 -20 2 30.24 22.85
2 -20 -2 14.37 23.19
-2 -20 1 46.11 23.49
2 -20 -1 55.14 24.1
-2 -20 0 19.17 22.45
2 -20 0 3.57 23.21
-2 -20 -1 36.46 23.15
2 -20 1 18.99 23.1
-2 -20 -2 4.61 22.94
2 -20 2 7.12 22.96
-2 -20 -3 16.31 22.7
2 -20 3 21.4 23.78
-2 -20 -4 9.45 22.85
2 -20 4 13.12 23.37
-2 -20 -5 7.11 22.86
2 -20 5 -25.16 24.25
-2 -20 -6 7.18 23.27
2 -20 6 32.42 24.37
-2 -20 -7 -3.62 23.61
2 -20 7 -4.8 23.83
2 -20 8 14.42 23.49
-2 -20 -8 10.95 24.21
2 -20 9 61.13 24.56
-2 -20 -9 4.92 24.28
-2 -20 -10 4.98 24.07
-2 -20 -11 23.9 24.89
-2 20 11 -7.91 18.83
-2 20 12 30.4 19.79
-2 20 13 3.12 19.74
3 -20 -12 -12.63 28.34
-3 20 -11 27.1 23.72
3 20 11 43.56 21.2
3 -20 -11 54.92 27.91
3 -20 -11 -27.56 26.23
-3 20 -10 38.34 23.79
3 20 10 -5.57 20.19
3 -20 -10 1.25 24.97
3 -20 -10 40.68 27.5
3 20 9 44.37 21.48
3 -20 -9 27.42 25.4
3 -20 -9 21.63 26.73
3 -20 -8 9.88 24.83
3 -20 -8 32.05 27.17
3 -20 -7 -7.37 24.28
3 -20 -7 43.35 26.53
3 -20 -6 41.51 24.96
3 -20 -6 46.64 26.65
3 -20 -5 52.2 24.59
3 -20 -5 24.03 25.82
3 -20 -4 29.06 24.08
3 -20 -4 55.06 26.06
3 -20 -3 19.38 24.24
3 -20 -2 31.54 23.52
3 -20 -1 49.54 24.59
-3 -20 1 26.53 22.68
3 -20 0 57.74 24.53
-3 -20 0 7.79 22.28
3 -20 1 12.03 23.13
-3 -20 -1 27.04 23.24
3 -20 2 3.61 23.34
-3 -20 -2 5.7 22.57
3 -20 3 41.13 23.51
-3 -20 -3 12.75 23.01
3 -20 4 19.45 23.53
-3 -20 -4 -8.14 22.77
3 -20 5 26.88 23.53
-3 -20 -5 30.57 23.24
3 -20 6 79.34 25.47
-3 -20 -6 43.98 23.71
3 -20 7 19.62 23.24
-3 -20 -7 9.59 23.45
-3 -20 -8 4.86 23.93
3 -20 8 -4.89 24.15
-3 -20 -9 18.48 23.44
-3 -20 -10 18.66 24.85
-3 -20 -11 3.76 24.79
-3 20 13 -2.06 19.74
-4 20 -12 35.76 25.08
-4 20 -11 41.81 24.56
4 20 11 37.86 21.59
4 -20 -11 55.9 28.06
4 -20 -11 84.28 27.3
-4 20 -10 24.01 23.77
4 20 10 24.06 20.75
4 -20 -10 4.99 25.57
4 -20 -10 2.78 26.73
4 20 9 12.5 20.93
4 -20 -9 42.22 25.85
4 -20 -9 13.8 26.92
4 -20 -8 16.06 25.12
4 -20 -8 28.58 26.37
4 -20 -7 28.28 24.78
4 -20 -7 29.55 26.77
4 -20 -6 57.52 25.53
4 -20 -6 1.32 26.03
4 -20 -5 6.12 24.15
4 -20 -5 16.82 25.47
4 -20 -4 14.71 24.87
4 -20 -4 41.13 26.18
4 -20 -3 -15.94 23.86
4 -20 -2 36.65 24.94
4 -20 -1 28 24.54
4 -20 0 48.72 24.67
-4 -20 -1 -14.46 22.02
4 -20 1 -3.66 23.38
-4 -20 -2 45.22 23.08
4 -20 2 46.54 24.49
-4 -20 -3 27.5 23.01
4 -20 3 11.08 23.85
-4 -20 -4 13.84 22.26
4 -20 4 7.44 23.54
-4 -20 -5 4.67 22.47
4 -20 5 -17.35 24.2
-4 -20 -6 37.79 23.63
4 -20 6 2.49 24.18
4 -20 7 -27.42 25.33
-4 -20 -7 7.18 23.88
4 -20 8 -18.66 24.32
-4 -20 -8 54.66 24.53
-4 -20 -9 8.6 23.98
-4 -20 -10 -8.68 23.61
-4 -20 -11 13.76 24.54
-5 20 -11 -6.52 24.05
5 -20 -11 16.25 26.57
-5 20 -10 41.18 24.98
5 20 10 16.43 21.22
5 -20 -10 -11.2 25.49
5 -20 -10 14.18 27.97
-5 20 -9 -11.59 23.56
5 -20 -9 44.66 26.26
5 -20 -9 -15.45 27.52
5 -20 -8 1.24 25.29
5 -20 -8 16.61 27.11
5 -20 -7 46.83 25.92
5 -20 -7 -4.1 27.45
5 -20 -6 53.1 25.59
5 -20 -6 13.4 25.94
5 -20 -5 2.48 24.73
5 -20 -5 6.64 25.8
5 -20 -4 -1.24 24.73
5 -20 -3 45.59 25.05
5 -20 -2 55.32 25.04
5 -20 -1 45.51 25.23
5 -20 0 -11.1 24.27
5 -20 1 -27.24 23.91
5 -20 2 64.71 25.41
5 -20 3 42.57 24.6
-5 -20 -3 22.57 22.83
5 -20 4 6.28 24.47
-5 -20 -4 6.85 22.44
5 -20 5 -2.52 24.13
-5 -20 -5 1.16 23.03
5 -20 6 49.34 25.86
-5 -20 -6 36.34 23.37
5 -20 7 63.09 25.54
-5 -20 -7 31.04 23.71
-5 -20 -8 6.06 23.82
-5 -20 -9 6.11 23.7
-5 -20 -10 33.35 24.21
6 -20 -10 57.1 27.11
-6 20 -9 -24.74 23.76
6 -20 -9 7.44 25.99
6 -20 -9 -17.07 28.33
6 -20 -8 37.28 26.11
6 -20 -8 -16.88 27.89
6 -20 -7 18.65 26.19
6 -20 -7 5.54 27.27
6 -20 -6 24.94 25.8
6 -20 -6 14.99 26.74
6 -20 -5 18.68 25.15
6 -20 -5 44.76 26.9
6 -20 -4 4.96 25.18
6 -20 -3 26.05 25.41
6 -20 -2 -14.9 25.22
6 -20 -1 2.49 25.32
6 -20 0 3.75 24.94
6 -20 1 -11.31 25.45
6 -20 2 2.53 25.36
6 -20 3 3.81 24.75
6 -20 4 33.04 25.27
6 -20 5 -29.44 24.93
-6 -20 -5 51.58 23.58
6 -20 6 3.83 25.06
-6 -20 -6 -15.17 22.7
-6 -20 -7 -40.41 23.86
-6 -20 -8 40.88 24.55
-6 -20 -9 1.21 23.58
-6 -20 -10 -8.63 23.74
7 -20 -9 33.72 26.77
7 -20 -8 22.78 28.17
7 -20 -8 -7.51 25.85
-7 20 -8 -22.31 23.4
7 -20 -7 18.78 26.26
7 -20 -7 -20.92 27.75
7 -20 -6 18.74 25.85
7 -20 -6 12.52 27.55
7 -20 -5 -8.74 25.76
7 -20 -4 52.47 26.05
7 -20 -3 53.82 25.99
7 -20 -2 33.89 25.82
7 -20 -1 69.37 26.88
7 -20 0 19.04 25.49
7 -20 1 29.37 25.57
7 -20 2 8.97 25.5
7 -20 3 52.59 26.43
7 -20 4 16.8 25.73
7 -20 5 -20.64 24.86
7 -20 6 9.06 24.99
-7 -20 -7 20.03 22.79
-7 -20 -8 -17.86 23.09
-7 -20 -9 8.47 23.86
8 -20 -8 -26.36 27.63
8 -20 -7 -25.08 26.69
8 -20 -6 5.02 26.45
8 -20 -5 12.57 26.05
8 -20 -4 13.88 26.02
8 -20 -3 39.23 26.68
8 -20 -2 -30.5 25.99
8 -20 -1 39.69 26.69
8 -20 0 27.07 26.08
8 -20 1 7.75 25.77
8 -20 2 63.45 26.98
8 -20 3 2.61 25.36
8 -20 4 26.03 25.45
8 -20 5 13.06 26.54
9 -20 -6 25.26 26.79
9 -20 -5 -12.67 26.54
9 -20 -4 -17.84 26.92
9 -20 -3 -10.26 26.49
9 -20 -2 78.65 27.71
9 -20 -1 -28.53 26.88
9 -20 0 45.44 27.24
9 -20 1 40.43 26.76
9 -20 2 28.84 26.73
9 -20 3 -1.31 26.29
0 -21 0 -19.52 24.25
0 -21 -1 8.57 23.67
0 -21 1 43.57 24.23
0 -21 2 33.71 23.93
0 -21 -2 8.56 23.55
0 -21 3 13.21 23.69
0 -21 -3 -30.73 23.98
0 -21 4 -32.42 24.52
0 -21 -4 -30.98 24.87
0 -21 5 14.42 23.54
0 -21 -5 -1.25 24.45
0 -21 -6 -13.86 24.66
0 -21 -7 61.19 25.61
0 21 8 57.29 20.66
0 -21 -8 12.76 25.01
0 21 9 59.57 20.58
0 21 10 15.6 19.99
1 21 10 6.44 20.13
1 21 9 33.21 20.8
1 21 8 83.49 21.65
1 -21 -8 32.11 26.21
1 21 7 19.98 20.66
1 -21 -7 33.07 25.31
1 21 6 19.83 20.39
1 -21 -6 -2.52 24.28
1 -21 -5 23.84 24.68
-1 -21 4 -55.27 23.57
1 -21 -4 -26.14 25.09
-1 -21 3 20.06 23.49
1 -21 -3 13.64 24.08
-1 -21 2 11.85 23.08
1 -21 -2 13.64 24.47
-1 -21 1 9.58 22.94
1 -21 -1 -2.48 23.88
-1 -21 0 99.99 25.18
1 -21 0 44.37 24.78
-1 -21 -1 3.62 23.41
1 -21 1 -1.22 24.19
1 -21 2 -46.44 24.71
-1 -21 -2 -13.3 23.92
1 -21 3 -17.1 24.09
-1 -21 -3 28.1 24.13
1 -21 4 46.46 24.88
-1 -21 -4 -3.7 24.05
1 -21 5 44.13 24.75
-1 -21 -5 43.58 24.89
1 -21 6 17.18 24.12
-1 -21 -6 15.11 24.73
1 -21 7 -3.67 24.04
-1 -21 -7 32.83 25.12
-1 -21 -8 64.75 26.17
2 -21 -10 94.95 29.46
2 -21 -9 32.64 27.11
2 21 9 84.82 22.33
2 -21 -8 -5.35 26.46
2 21 8 19.77 20.91
2 -21 -8 -6.4 25.13
2 -21 -7 31.64 26.48
2 21 7 50.22 21.59
2 -21 -7 8.92 25.11
2 -21 -6 21.95 26.57
2 -21 -6 -46.83 25.43
2 -21 -5 2.52 24.3
2 -21 -4 15.05 24.26
2 -21 -3 36.39 24.77
2 -21 -2 -5.02 24.59
-2 -21 2 14.01 22.84
2 -21 -1 2.5 24.32
-2 -21 1 -3.54 23.3
-2 -21 0 -10.64 22.75
2 -21 0 50.95 25.12
2 -21 1 49.63 24.48
-2 -21 -1 -20.19 23.42
2 -21 2 44.65 24.51
-2 -21 -2 1.2 23.37
2 -21 3 52.22 25.61
-2 -21 -3 20.61 23.99
2 -21 4 18.71 24.75
-2 -21 -4 24.5 24.41
2 -21 5 2.5 24.75
-2 -21 -5 4.97 23.74
2 -21 6 -6.24 24.36
-2 -21 -6 33.67 24.57
2 -21 7 17.49 24.25
-2 -21 -7 7.53 24.23
2 -21 8 12.45 24.6
-2 -21 -8 37.94 25.38
2 -21 9 -4.97 23.87
3 -21 -9 -8.33 27.37
3 21 9 15.99 21.68
3 -21 -8 -17.78 27.39
3 21 8 -12.5 21.26
3 -21 -8 35.83 25.79
3 -21 -7 1.35 26.65
3 -21 -7 3.83 25.18
3 -21 -6 32.98 27.22
3 -21 -6 58.28 25.78
3 -21 -5 -2.61 25.93
3 -21 -5 53.15 26.09
3 -21 -4 97.61 27.1
3 -21 -3 39.32 25.49
3 -21 -2 11.38 24.81
3 -21 -1 31.44 24.73
-3 -21 0 8.13 23.16
3 -21 0 -8.8 24.62
3 -21 1 -1.26 24.25
-3 -21 -1 15.24 23.13
3 -21 2 49.14 25.2
-3 -21 -2 8.32 23.31
3 -21 3 67.02 25.25
-3 -21 -3 -1.2 23.54
3 -21 4 105.37 26.48
-3 -21 -4 119.67 26.21
3 -21 5 6.35 24.27
-3 -21 -5 -2.45 24.11
3 -21 6 -1.27 23.94
-3 -21 -6 22.24 24.28
3 -21 7 8.91 25
-3 -21 -7 -42.41 24.58
3 -21 8 60.79 25.19
-3 -21 -8 -30.22 24.72
4 -21 -8 30.68 27.49
4 -21 -7 -10.97 26.34
4 -21 -7 1.28 25.53
4 -21 -6 61.96 27.93
4 -21 -6 34.49 25.38
4 -21 -5 6.7 26.38
4 -21 -5 60.13 25.96
4 -21 -4 35.83 25.8
4 -21 -3 -15.3 25.24
4 -21 -2 44.47 26.45
4 -21 -1 2.54 24.73
4 -21 0 15.26 24.65
4 -21 1 20.38 24.62
4 -21 2 90.78 26.68
-4 -21 -2 24.66 23.34
4 -21 3 35.96 25.24
-4 -21 -3 -5.96 23.08
4 -21 4 9.03 24.89
-4 -21 -4 -13.27 23.36
4 -21 5 20.59 24.97
-4 -21 -5 31.6 24.25
4 -21 6 45.22 25.58
-4 -21 -6 7.37 23.76
4 -21 7 -14.17 24.47
-4 -21 -7 6.2 24.12
-4 -21 -8 -10.02 24.38
5 -21 -7 -33.38 27.92
5 -21 -6 11.04 27.16
5 -21 -6 -9.01 25.61
5 -21 -5 19.3 26.11
5 -21 -4 7.71 25.98
5 -21 -3 -34.57 26.04
5 -21 -2 7.68 25.39
5 -21 -1 3.85 25.79
5 -21 0 -19.29 25.75
5 -21 1 10.33 25.6
5 -21 2 9.08 25.16
5 -21 3 14.35 25.92
5 -21 4 32.56 25.56
-5 -21 -4 42.75 23.55
5 -21 5 69.26 26.71
-5 -21 -5 -28.86 23.9
5 -21 6 -49.76 25.8
-5 -21 -6 13.39 23.42
5 -21 7 28.74 25.36
-5 -21 -7 17.22 24.27
6 -21 -5 54.09 26.73
6 -21 -4 38.63 26.56
6 -21 -3 27.08 26.07
6 -21 -2 -28.41 26.07
6 -21 -1 47.94 26.4
6 -21 0 33.87 25.98
6 -21 1 81.14 27.21
6 -21 2 17.11 25.51
6 -21 3 -44.74 25.99
6 -21 4 30.36 25.66
-6 -21 -6 8.43 23.52
-6 -21 -7 24.42 24.01
7 -21 -1 61.63 27.31
7 -21 0 88.32 27.54
0 -22 0 3.79 24.56
0 -22 -1 10.19 24.33
0 -22 1 45.2 24.94
0 -22 2 16.26 24.16
0 -22 -2 7.65 24.33
0 -22 -3 1.28 24.76
0 -22 3 -16.22 23.91
0 -22 4 36.16 24.85
-1 -22 3 -24.51 24.08
1 -22 -3 -15.52 25.63
-1 -22 2 60.34 25.41
1 -22 -2 -7.75 25.23
1 -22 -1 17.99 24.46
-1 -22 1 -1.24 23.66
-1 -22 0 12.5 23.91
1 -22 0 -21.69 24.16
-1 -22 -1 31.43 24.87
1 -22 1 22.91 24.48
1 -22 2 22.86 24.96
-1 -22 -2 -3.78 24.27
-1 -22 -3 -12.63 23.73
1 -22 3 2.54 24.44
-1 -22 -4 28.05 24.52
1 -22 4 5.09 24.6
1 -22 5 22.92 24.61
1 -22 6 -6.34 24.99
2 22 6 13.38 21.48
2 -22 -2 7.81 25.21
-2 -22 1 -7.34 23.58
2 -22 -1 7.76 25.11
2 -22 0 -15.49 25.12
-2 -22 0 -17.29 24.2
2 -22 1 12.89 24.81
-2 -22 -1 -2.48 23.66
-2 -22 -2 19.87 24.06
2 -22 2 -2.58 24.44
-2 -22 -3 27.59 24.39
2 -22 3 18.09 24.77
-2 -22 -4 24.06 24.53
2 -22 4 5.18 24.9
2 -22 5 -16.84 25
-3 -22 -1 21.91 23.55
-3 -22 -2 41.73 24.35
-3 -22 -3 52.19 24.84
-3 -22 -4 32.69 24.75
-4 -22 -3 14.75 23.9

_iucr_refine_instructions_details 
;
TITL b-89-2_auto_a.res in P4(3)2(1)2
    snnu-234.res
    created by SHELXL-2018/3 at 22:49:26 on 10-Jan-2025
REM Old TITL b-89-2_auto in P4(1)2(1)2
REM SHELXT solution in P4(3)2(1)2
REM R1 0.160, Rweak 0.083, Alpha 0.009, Orientation as input
REM Flack x = 0.016 ( 0.021 ) from Parsons' quotients
REM Formula found by SHELXT: C52 N16 Ni3
CELL 0.71073 15.773 15.773 20.3921 90 90 90
ZERR 4 0.0004 0.0004 0.0007 0 0 0
LATT -1
SYMM -X,-Y,0.5+Z
SYMM 0.5-Y,0.5+X,0.75+Z
SYMM 0.5+Y,0.5-X,0.25+Z
SYMM 0.5-X,0.5+Y,0.75-Z
SYMM 0.5+X,0.5-Y,0.25-Z
SYMM +Y,+X,-Z
SYMM -Y,-X,0.5-Z
SFAC C H Cl N Ni
UNIT 192 96 8 48 12
DFIX 0.78 0.01 C2 H2
DFIX 0.78 0.01 C3 H3

L.S. 4 0 0
PLAN  50
SIZE 0.1 0.1 0.05
CONF
list 4
MORE -1
ABIN
BOND $H
fmap 2 53
acta
REM <olex2.extras>
REM <HklSrc "%.\\SNNU-234.hkl">
REM </olex2.extras>

WGHT    0.075900
FVAR       0.26389
NI1   5    0.142797    0.632684    0.620200    11.00000    0.02866    0.03459 =
         0.02980    0.01113   -0.00809    0.00105
NI2   5    0.519977    0.480023    0.750000    10.50000    0.02930    0.02930 =
         0.03567    0.00287    0.00287    0.00196
CL1   3    0.559928    0.377039    0.671716    11.00000    0.05919    0.06131 =
         0.08347   -0.02373    0.00871   -0.00004
N1    4    0.117701    0.565094    0.698205    11.00000    0.03309    0.02487 =
         0.01595    0.00624   -0.00425   -0.00168
N5    4    0.415583    0.522654    0.683065    11.00000    0.02637    0.02284 =
         0.02857    0.01211    0.00177   -0.00315
N6    4    0.259552    0.594284    0.636328    11.00000    0.02997    0.02933 =
         0.02744    0.00765    0.00307    0.00332
N2    4    0.110725    0.443426    0.802563    11.00000    0.02450    0.03657 =
         0.02198    0.00473    0.00234   -0.00681
N3    4    0.250946    0.365880    0.841387    11.00000    0.03102    0.02258 =
         0.02511    0.01126    0.00139   -0.00619
C7    1    0.182448    0.464624    0.773008    11.00000    0.03552    0.02362 =
         0.01565    0.00243   -0.00413    0.00384
N4    4    0.409910    0.406321    0.781605    11.00000    0.03081    0.02547 =
         0.03205    0.00482    0.00302    0.00551
C9    1    0.263247    0.540934    0.687950    11.00000    0.02676    0.03178 =
         0.02080    0.00967   -0.01357    0.00390
C8    1    0.185907    0.523485    0.718408    11.00000    0.02436    0.02635 =
         0.02994    0.00810   -0.00785   -0.00182
C24   1    0.412359    0.572445    0.625157    11.00000    0.03034    0.03278 =
         0.02325    0.00336   -0.00026   -0.00827
C19   1    0.334142    0.608253    0.603037    11.00000    0.02921    0.03391 =
         0.02717    0.00724    0.00126   -0.00674
C5    1    0.037161    0.486038    0.783065    11.00000    0.03196    0.02252 =
         0.02931    0.00005   -0.01145   -0.00146
C4    1    0.041639    0.546407    0.729809    11.00000    0.02072    0.02678 =
         0.02369   -0.00461   -0.00109    0.00030
C11   1    0.338222    0.443919    0.764148    11.00000    0.02422    0.01785 =
         0.02610    0.00528    0.00254    0.00173
C12   1    0.258696    0.423665    0.792321    11.00000    0.03623    0.01855 =
         0.02019    0.00246   -0.00445   -0.00354
C10   1    0.341367    0.504996    0.709615    11.00000    0.03694    0.02397 =
         0.02375    0.01036    0.00347    0.00342
C23   1    0.482524    0.585803    0.586508    11.00000    0.02528    0.05858 =
         0.03426    0.00568    0.00801    0.00984
AFIX  43
H23   2    0.533179    0.560290    0.598971    11.00000   -1.20000
AFIX   0
C3    1   -0.032970    0.591700    0.714647    11.00000    0.02660    0.04408 =
         0.03437    0.00730   -0.00818   -0.00248
C13   1    0.321491    0.322704    0.857741    11.00000    0.03424    0.02560 =
         0.02488    0.00589   -0.00007    0.00474
C16   1    0.464758    0.227174    0.888953    11.00000    0.04958    0.02619 =
         0.04367    0.00532   -0.02543    0.01360
AFIX  43
H16   2    0.511974    0.194611    0.899523    11.00000   -1.20000
AFIX   0
C6    1   -0.039745    0.472034    0.812674    11.00000    0.01920    0.05602 =
         0.03810    0.01258    0.00420    0.00028
C17   1    0.391824    0.211249    0.919188    11.00000    0.06704    0.04021 =
         0.03930    0.02533   -0.02667    0.00278
AFIX  43
H17   2    0.389374    0.168130    0.950235    11.00000   -1.20000
AFIX   0
C2    1   -0.107657    0.577869    0.747068    11.00000    0.03493    0.05266 =
         0.05044    0.00504   -0.00752    0.00662
C20   1    0.334519    0.657795    0.546550    11.00000    0.03920    0.05073 =
         0.03796    0.01941    0.00063    0.00474
C14   1    0.402955    0.339933    0.827308    11.00000    0.04862    0.02116 =
         0.02397    0.00544   -0.00450    0.01243
C15   1    0.472917    0.289183    0.843224    11.00000    0.03099    0.02874 =
         0.03909    0.00939   -0.00746    0.00004
AFIX  43
H15   2    0.524730    0.297950    0.822541    11.00000   -1.20000
AFIX   0
C18   1    0.318317    0.258275    0.905179    11.00000    0.04801    0.04247 =
         0.04576    0.01943   -0.00795   -0.00678
AFIX  43
H18   2    0.267957    0.246792    0.927172    11.00000   -1.20000
AFIX   0
C22   1    0.482510    0.633626    0.531603    11.00000    0.04102    0.06849 =
         0.03930    0.01357    0.01239    0.00414
AFIX  43
H22   2    0.531825    0.640949    0.507256    11.00000   -1.20000
AFIX   0
C1    1   -0.110922    0.514534    0.796403    11.00000    0.02151    0.06562 =
         0.04809   -0.01279    0.01072    0.00047
C21   1    0.406130    0.672105    0.512108    11.00000    0.04751    0.05891 =
         0.03682    0.02533    0.01642    0.00436
AFIX  43
H21   2    0.404988    0.707340    0.475552    11.00000   -1.20000
AFIX   0
H1    2   -0.155840    0.515926    0.813296    11.00000    0.08919
H6    2   -0.046801    0.432239    0.837995    11.00000    0.03777
H20   2    0.283560    0.683540    0.536591    11.00000    0.05046
H3    2   -0.025549    0.613178    0.680728    11.00000    0.06152
H2    2   -0.146211    0.604537    0.735241    11.00000    0.03156
HKLF 4




REM  b-89-2_auto_a.res in P4(3)2(1)2
REM wR2 = 0.1622, GooF = S = 0.961, Restrained GooF = 0.961 for all data
REM R1 = 0.0719 for 4293 Fo > 4sig(Fo) and 0.1276 for all 7400 data
REM 314 parameters refined using 2 restraints

END  
     
WGHT      0.0759      0.0000 

REM Highest difference peak  0.732,  deepest hole -0.412,  1-sigma level  0.096
Q1    1   0.1537  0.5963  0.5825  11.00000  0.05    0.73
Q2    1   0.1669  0.5923  0.6518  11.00000  0.05    0.58
Q3    1   0.0982  0.6409  0.5898  11.00000  0.05    0.49
Q4    1   0.5401  0.5174  0.7914  11.00000  0.05    0.48
Q5    1   0.1803  0.6576  0.6561  11.00000  0.05    0.47
Q6    1   0.3624  0.4185  0.7415  11.00000  0.05    0.45
Q7    1   0.4976  0.4462  0.7122  11.00000  0.05    0.41
Q8    1   0.5192  0.4146  0.7200  11.00000  0.05    0.39
Q9    1   0.3979  0.3848  0.8063  11.00000  0.05    0.39
Q10   1   0.1452  0.6773  0.5826  11.00000  0.05    0.38
Q11   1   0.4828  0.4847  0.7904  11.00000  0.05    0.38
Q12   1   0.2248  0.5701  0.6688  11.00000  0.05    0.37
Q13   1   0.0576  0.4279  0.7700  11.00000  0.05    0.37
Q14   1   0.5781  0.4624  0.7191  11.00000  0.05    0.36
Q15   1   0.4399  0.2752  0.8790  11.00000  0.05    0.36
Q16   1   0.1848  0.5189  0.7338  11.00000  0.05    0.35
Q17   1   0.1058  0.6177  0.6597  11.00000  0.05    0.35
Q18   1   0.3652  0.4451  0.7873  11.00000  0.05    0.35
Q19   1   0.2446  0.4258  0.7792  11.00000  0.05    0.35
Q20   1   0.0824  0.6430  0.6158  11.00000  0.05    0.35
Q21   1   0.3398  0.4820  0.7522  11.00000  0.05    0.34
Q22   1   0.3604  0.1629  0.8597  11.00000  0.05    0.34
Q23   1   0.0996  0.5282  0.7256  11.00000  0.05    0.34
Q24   1   0.2113  0.2664  0.9681  11.00000  0.05    0.34
Q25   1   0.4948  0.3823  0.6929  11.00000  0.05    0.34
Q26   1   0.0847  0.5429  0.7259  11.00000  0.05    0.33
Q27   1   0.1183  0.5068  0.7276  11.00000  0.05    0.33
Q28   1   0.3118  0.3594  0.8245  11.00000  0.05    0.32
Q29   1   0.2166  0.6303  0.6096  11.00000  0.05    0.32
Q30   1   0.4784  0.6614  0.6156  11.00000  0.05    0.32
Q31   1   0.1762  0.5439  0.6786  11.00000  0.05    0.32
Q32   1   0.4016  0.4186  0.7702  11.00000  0.05    0.32
Q33   1   0.3178  0.5844  0.6283  11.00000  0.05    0.32
Q34   1   0.0757  0.4772  0.7709  11.00000  0.05    0.32
Q35   1   0.3177  0.4059  0.7842  11.00000  0.05    0.32
Q36   1   0.4790  0.3606  0.6702  11.00000  0.05    0.31
Q37   1   0.2025  0.6342  0.6205  11.00000  0.05    0.31
Q38   1   0.1841  0.4557  0.7581  11.00000  0.05    0.31
Q39   1   0.0250  0.5638  0.7538  11.00000  0.05    0.31
Q40   1   0.0591  0.4580  0.7689  11.00000  0.05    0.31
Q41   1   0.1405  0.4209  0.7899  11.00000  0.05    0.31
Q42   1   0.3215  0.6413  0.6192  11.00000  0.05    0.30
Q43   1   0.0149  0.4600  0.7939  11.00000  0.05    0.30
Q44   1   0.3881  0.2059  0.9419  11.00000  0.05    0.30
Q45   1   0.0200  0.4976  0.7564  11.00000  0.05    0.30
Q46   1   0.0182  0.5390  0.7034  11.00000  0.05    0.30
Q47   1   0.0653  0.5219  0.6941  11.00000  0.05    0.30
Q48   1   0.2402  0.3842  0.8096  11.00000  0.05    0.30
Q49   1   0.3626  0.3784  0.7659  11.00000  0.05    0.29
Q50   1   0.4385  0.5964  0.6808  11.00000  0.05    0.29

  REM The information below was added by Olex2.
  REM
  REM R1 = 0.0719 for 4293 Fo > 4sig(Fo) and 0.1276 for all 24602 data
  REM 314 parameters refined using n/a restraints
  REM Highest difference peak 0.73, deepest hole -0.41
  REM Mean Shift 0, Max Shift 0.001.

  REM +++ Tabular Listing of Refinement Information +++
  REM R1_all = 0.1276
  REM R1_gt = 0.0719
  REM wR_ref = 0.1622
  REM GOOF = 0.961
  REM Shift_max = 0.001
  REM Shift_mean = 0
  REM Reflections_all = 24602
  REM Reflections_gt = 4293
  REM Parameters = 314
  REM Hole = -0.41
  REM Peak = 0.73
  REM Flack = 0.007(14)

  
;
_olex2_submission_special_instructions 'No special instructions were received'
_oxdiff_exptl_absorpt_empirical_details 
;
Empirical correction (ABSPACK) includes:
- Absorption correction using spherical harmonics
- Frame scaling
;
